geometry optimzed in LAMMPS
_audit_creation_date              2020-11-30 
_audit_creation_method            'lammps2cif' 
_symmetry_space_group_name_H-M    'P1' 
_symmetry_Int_Tables_number       1 
_symmetry_cell_setting            triclinic 
loop_ 
_symmetry_equiv_pos_as_xyz 
  x,y,z 
_cell_length_a                    66.29112797 
_cell_length_b                    66.3120481180184 
_cell_length_c                    92.39132122209035 
_cell_angle_alpha                 90.06619305930437 
_cell_angle_beta                  89.79713182731395 
_cell_angle_gamma                 122.60677469654586 
loop_ 
_atom_site_label 
_atom_site_type_symbol 
_atom_site_fract_x 
_atom_site_fract_y 
_atom_site_fract_z 
_atom_site_charge 
C1          C  0.80565950  0.32244370  0.65566322     0.87300
C2          C  0.81624462  0.32539789  0.67090145    -0.52900
C3          C  0.80242398  0.32611966  0.68163926     0.10200
C4          C  0.77962774  0.32424890  0.67628082     0.21200
C5          C  0.78002833  0.29986657  0.65681764    -0.53700
C6          C  0.76628494  0.30105012  0.66742593     0.10300
C7          C  0.80153515  0.34314129  0.65419866    -0.53200
C8          C  0.78814171  0.34428711  0.66502738     0.10900
H9          H  0.83296109  0.32659200  0.67300494     0.15400
H10         H  0.76871458  0.32513552  0.68508498     0.01100
H11         H  0.77266407  0.28457640  0.64972189     0.15700
H12         H  0.80906790  0.35605238  0.64542274     0.15500
C13         C  0.81339130  0.34021919  0.81549933     0.87300
C14         C  0.81233606  0.36292829  0.81429240    -0.52900
C15         C  0.79879066  0.36256527  0.80312849     0.10200
C16         C  0.78741100  0.33968676  0.79415360     0.21200
C17         C  0.78667380  0.31987150  0.81635041    -0.53700
C18         C  0.77297903  0.31945376  0.80516688     0.10300
C19         C  0.82189480  0.33754842  0.80047201    -0.53200
C20         C  0.80840635  0.33767184  0.78931036     0.10900
H21         H  0.81993967  0.37735947  0.82211967     0.15400
H22         H  0.77687228  0.33995896  0.78497557     0.01100
H23         H  0.77901333  0.30765960  0.82544979     0.15700
H24         H  0.83775164  0.33689584  0.79880125     0.15500
C25         C  0.70830306  0.47331035  0.65664546     0.87300
C26         C  0.71287458  0.48645111  0.67124755    -0.52900
C27         C  0.71001181  0.47259278  0.68296861     0.10200
C28         C  0.70333992  0.44713458  0.67911581     0.21200
C29         C  0.72541373  0.46428650  0.65678167    -0.53700
C30         C  0.72268137  0.45027483  0.66842417     0.10300
C31         C  0.68308729  0.45057101  0.65839880    -0.53200
C32         C  0.68057303  0.43642058  0.66989109     0.10900
H33         H  0.71712065  0.50455362  0.67255581     0.15400
H34         H  0.70167614  0.43653457  0.68881857     0.01100
H35         H  0.73762883  0.46760198  0.64791565     0.15700
H36         H  0.66876442  0.44582231  0.65078691     0.15500
C37         C  0.72243569  0.49247237  0.81579873     0.87300
C38         C  0.69948169  0.46726545  0.81591827    -0.52900
C39         C  0.69775574  0.45294583  0.80478075     0.10200
C40         C  0.71940497  0.46499291  0.79457437     0.21200
C41         C  0.74295169  0.48773732  0.81536696    -0.53700
C42         C  0.74102748  0.47286994  0.80441243     0.10300
C43         C  0.72320515  0.50263986  0.80066353    -0.53200
C44         C  0.72186161  0.48826042  0.78960311     0.10900
H45         H  0.68618369  0.46106949  0.82449414     0.15400
H46         H  0.71742613  0.45324375  0.78542781     0.01100
H47         H  0.75774353  0.49524255  0.82279889     0.15700
H48         H  0.72496324  0.51968963  0.79887484     0.15500
C49         C  0.55346516  0.22177665  0.66090310     0.87300
C50         C  0.54173081  0.20931855  0.67548576    -0.52900
C51         C  0.55651971  0.22032959  0.68716704     0.10200
C52         C  0.58114940  0.24242760  0.68324694     0.21200
C53         C  0.56076791  0.24778623  0.66333165    -0.53700
C54         C  0.57572985  0.25896000  0.67476314     0.10300
C55         C  0.57714089  0.22271823  0.66040846    -0.53200
C56         C  0.59150419  0.23346854  0.67201783     0.10900
H57         H  0.52371922  0.19375223  0.67666188     0.15400
H58         H  0.59282888  0.25096977  0.69279746     0.01100
H59         H  0.55566317  0.25697519  0.65592839     0.15700
H60         H  0.58268427  0.21654966  0.65122229     0.15500
C61         C  0.55754025  0.23807615  0.81988527     0.87300
C62         C  0.58233314  0.24128252  0.82008927    -0.52900
C63         C  0.59643274  0.25292949  0.80833624     0.10200
C64         C  0.58442366  0.26069916  0.79745470     0.21200
C65         C  0.56333075  0.26386641  0.81799539    -0.53700
C66         C  0.57794654  0.27598773  0.80643970     0.10300
C67         C  0.54641330  0.22586933  0.80531683    -0.53200
C68         C  0.56053138  0.23775534  0.79363581     0.10900
H69         H  0.58842072  0.23570270  0.82923055     0.15400
H70         H  0.59559160  0.26964561  0.78776919     0.01100
H71         H  0.55757309  0.27252513  0.82532041     0.15700
H72         H  0.52901743  0.20931732  0.80432876     0.15500
In73       In  0.49235932  0.14859039  0.53169114     1.36900
C74         C  0.52446292  0.14606102  0.51538793     0.78400
O75         O  0.45918527  0.11421031  0.52400643    -0.60100
O76         O  0.47510105  0.11368782  0.54362984    -0.51000
C77         C  0.50083493  0.16352541  0.55908234     0.71100
O78         O  0.48159174  0.15774437  0.55270010    -0.45800
C79         C  0.48827392  0.18220883  0.51858657     0.75800
O80         O  0.52735845  0.15099693  0.52868993    -0.57700
O81         O  0.47044201  0.16147135  0.52123244    -0.47800
O82         O  0.50500496  0.14219909  0.51047256    -0.54100
C83         C  0.45894440  0.10189728  0.53446853     0.85900
O84         O  0.51591625  0.16262370  0.55118618    -0.56000
O85         O  0.50783674  0.18585401  0.52320812    -0.59300
In86       In  0.49605959  0.34825784  0.44436167     1.36900
C87         C  0.53233377  0.38137757  0.46034357     0.78400
O88         O  0.45959369  0.34386025  0.44595876    -0.60100
O89         O  0.49029959  0.37803130  0.44154089    -0.51000
C90         C  0.50040374  0.34320785  0.41604432     0.71100
O91         O  0.51735944  0.35829358  0.42390366    -0.45800
C92         C  0.48912478  0.30903202  0.45752280     0.75800
O93         O  0.53436499  0.37800956  0.44712871    -0.57700
O94         O  0.47498509  0.31612193  0.45907338    -0.47800
O95         O  0.51162273  0.36746129  0.46549701    -0.54100
C96         C  0.46802158  0.36574370  0.44349353     0.85900
O97         O  0.48095731  0.33006559  0.42278401    -0.56000
O98         O  0.50611713  0.32152713  0.44885240    -0.59300
In99       In  0.69233060  0.15328989  0.44232587     1.36900
C100        C  0.65669371  0.15273227  0.45640074     0.78400
O101        O  0.68039881  0.11896229  0.45415129    -0.60100
O102        O  0.68853690  0.12079857  0.43184681    -0.51000
C103        C  0.69253442  0.16670931  0.41506461     0.71100
O104        O  0.67945003  0.16696642  0.42488943    -0.45800
C105        C  0.73503982  0.18411790  0.45426015     0.75800
O106        O  0.65319476  0.13828276  0.44637811    -0.57700
O107        O  0.72375678  0.16189315  0.45646810    -0.47800
O108        O  0.67849258  0.16752378  0.45916775    -0.54100
C109        C  0.68134387  0.10820467  0.44317369     0.85900
O110        O  0.70579838  0.15958905  0.41921534    -0.56000
O111        O  0.72470292  0.19040562  0.44568433    -0.59300
In112      In  0.89609718  0.34929908  0.53089906     1.36900
C113        C  0.89305251  0.38363593  0.51785595     0.78400
O114        O  0.92712456  0.34601541  0.52464727    -0.60100
O115        O  0.93277111  0.37198808  0.54024312    -0.51000
C116        C  0.88174590  0.34241116  0.55849041     0.71100
O117        O  0.88098094  0.35713200  0.55024503    -0.45800
C118        C  0.86944172  0.31102460  0.51409868     0.75800
O119        O  0.87488251  0.36409182  0.52195688    -0.57700
O120        O  0.88781230  0.32998794  0.50957204    -0.47800
O121        O  0.91261878  0.38564460  0.52067510    -0.54100
C122        C  0.94174880  0.36276192  0.53284767     0.85900
O123        O  0.88930498  0.33061364  0.55246055    -0.56000
O124        O  0.86525615  0.31135001  0.52739965    -0.59300
In125      In  0.89315537  0.54395602  0.44137691     1.36900
C126        C  0.88861215  0.50920379  0.45857073     0.78400
O127        O  0.92858878  0.54949697  0.43524757    -0.60100
O128        O  0.92832575  0.58009580  0.44124133    -0.51000
C129        C  0.87827130  0.53803643  0.41395394     0.71100
O130        O  0.87692836  0.52145343  0.42144828    -0.45800
C131        C  0.86414289  0.55417498  0.45525282     0.75800
O132        O  0.88072226  0.50546815  0.44580058    -0.57700
O133        O  0.88658868  0.56644082  0.45686640    -0.47800
O134        O  0.89830725  0.53064732  0.46261981    -0.54100
C135        C  0.94065711  0.57179616  0.43718042     0.85900
O136        O  0.88734702  0.55774055  0.42053184    -0.56000
O137        O  0.85684858  0.53704098  0.44650026    -0.59300
In138      In  0.70304132  0.55347628  0.53171965     1.36900
C139        C  0.66651466  0.51677993  0.51759101     0.78400
O140        O  0.69056538  0.57526138  0.54312823    -0.60100
O141        O  0.69905353  0.58191623  0.52095712    -0.51000
C142        C  0.70625895  0.54346762  0.55939125     0.71100
O143        O  0.72415812  0.55990642  0.55248619    -0.45800
C144        C  0.74105869  0.55899482  0.51714948     0.75800
O145        O  0.67575919  0.53827618  0.51383909    -0.57700
O146        O  0.74058372  0.57669802  0.52175354    -0.47800
O147        O  0.67554282  0.51415694  0.52883298    -0.54100
C148        C  0.69102422  0.58648774  0.53201550     0.85900
O149        O  0.68710557  0.53307262  0.55220346    -0.56000
O150        O  0.72276670  0.53915040  0.52051099    -0.59300
In151      In  0.16793856  0.48454032  0.52319903     1.36900
C152        C  0.17644067  0.52124972  0.50641896     0.78400
O153        O  0.20422764  0.49068604  0.52080692    -0.60100
O154        O  0.17665694  0.46351069  0.50786452    -0.51000
C155        C  0.17778467  0.48873019  0.55135217     0.71100
O156        O  0.17915808  0.50528434  0.54381108    -0.45800
C157        C  0.12059239  0.45624872  0.52562333     0.75800
O158        O  0.18520441  0.52390553  0.51887407    -0.57700
O159        O  0.13334891  0.44866011  0.52114905    -0.47800
O160        O  0.16347446  0.49970366  0.50246927    -0.54100
C161        C  0.19859374  0.47518528  0.51112704     0.85900
O162        O  0.17105928  0.46969107  0.54444341    -0.56000
O163        O  0.13213764  0.47827183  0.52850193    -0.59300
In164      In  0.36638133  0.48210688  0.43965076     1.36900
C165        C  0.40116920  0.51832937  0.45492055     0.78400
O166        O  0.34259364  0.49449398  0.44703216    -0.60100
O167        O  0.33134622  0.45872443  0.45169088    -0.51000
C168        C  0.36038387  0.48567842  0.41136015     0.71100
O169        O  0.37662397  0.50245325  0.41881232    -0.45800
C170        C  0.38219147  0.45276451  0.43919804     0.75800
O171        O  0.39435447  0.52095814  0.44276930    -0.57700
O172        O  0.36436640  0.44845617  0.44673127    -0.47800
O173        O  0.38993005  0.49700918  0.45939348    -0.54100
C174        C  0.32720588  0.47509402  0.45301519     0.85900
O175        O  0.34658938  0.46686394  0.41850082    -0.56000
O176        O  0.39143312  0.47176713  0.43190186    -0.59300
In177      In  0.16864966  0.68032888  0.43458820     1.36900
C178        C  0.17635614  0.65046811  0.44932188     0.78400
O179        O  0.20617790  0.70855567  0.44075417    -0.60100
O180        O  0.17843585  0.71228082  0.44883446    -0.51000
C181        C  0.17893394  0.68352271  0.40632108     0.71100
O182        O  0.16540986  0.66386931  0.41267210    -0.45800
C183        C  0.12154246  0.66323881  0.43531241     0.75800
O184        O  0.18003028  0.65397132  0.43588373    -0.57700
O185        O  0.13674371  0.68419761  0.43097675    -0.47800
O186        O  0.16881410  0.66237743  0.45519702    -0.54100
C187        C  0.20062353  0.72037150  0.44862506     0.85900
O188        O  0.18658936  0.70160748  0.41432611    -0.56000
O189        O  0.13066715  0.65188177  0.43955591    -0.59300
In190      In  0.36398312  0.87748115  0.53103475     1.36900
C191        C  0.39724788  0.87742322  0.51477974     0.78400
O192        O  0.33649954  0.83979980  0.52410326    -0.60100
O193        O  0.33385582  0.86765026  0.51530226    -0.51000
C194        C  0.35840309  0.86194451  0.55831061     0.71100
O195        O  0.37668178  0.86825716  0.55073439    -0.45800
C196        C  0.37917696  0.92369317  0.53489011     0.75800
O197        O  0.39044092  0.86710925  0.52686784    -0.57700
O198        O  0.39278133  0.91592159  0.53542596    -0.47800
O199        O  0.38666601  0.88760027  0.51082539    -0.54100
C200        C  0.32558318  0.84549480  0.51558065     0.85900
O201        O  0.34282273  0.86417844  0.55203535    -0.56000
O202        O  0.35753548  0.90771348  0.53251554    -0.59300
In203      In  0.57299210  0.68794328  0.52654210     1.36900
C204        C  0.53602920  0.65462995  0.51094458     0.78400
O205        O  0.56430234  0.71583680  0.52279206    -0.60100
O206        O  0.59303534  0.71905435  0.51076370    -0.51000
C207        C  0.56712961  0.69365287  0.55446305     0.71100
O208        O  0.55157925  0.67665130  0.54680246    -0.45800
C209        C  0.60219602  0.67151245  0.52864532     0.75800
O210        O  0.53373696  0.66087699  0.52338319    -0.57700
O211        O  0.60919688  0.69194493  0.52351942    -0.47800
O212        O  0.55731541  0.66576087  0.50635856    -0.54100
C213        C  0.57998331  0.72720089  0.51321377     0.85900
O214        O  0.58636735  0.70809287  0.54781383    -0.56000
O215        O  0.58067047  0.66004098  0.53270722    -0.59300
In216      In  0.56412095  0.88275171  0.44187453     1.36900
C217        C  0.52994840  0.88290072  0.45723785     0.78400
O218        O  0.54968423  0.84670779  0.45193114    -0.60100
O219        O  0.58728026  0.87046204  0.45111771    -0.51000
C220        C  0.55582671  0.86674439  0.41455613     0.71100
O221        O  0.54031848  0.86637920  0.42265997    -0.45800
C222        C  0.59612570  0.92991008  0.44072639     0.75800
O223        O  0.52778240  0.87708407  0.44409630    -0.57700
O224        O  0.59777078  0.91649763  0.44964449    -0.47800
O225        O  0.54989112  0.88888059  0.46261566    -0.54100
C226        C  0.56983097  0.85025587  0.45502154     0.85900
O227        O  0.57605693  0.87552893  0.42043834    -0.56000
O228        O  0.57861196  0.91899512  0.43226199    -0.59300
C229        C  0.34034193  0.78883251  0.81505885     0.87300
C230        C  0.34405366  0.80137905  0.80035409    -0.52900
C231        C  0.34585749  0.78924373  0.78897366     0.10200
C232        C  0.34343731  0.76570466  0.79318379     0.21200
C233        C  0.31786491  0.76347335  0.81276265    -0.53700
C234        C  0.31961272  0.75123616  0.80142162     0.10300
C235        C  0.36099515  0.78445010  0.81611522    -0.53200
C236        C  0.36262815  0.77230105  0.80466161     0.10900
H237        H  0.34535438  0.81832041  0.79909204     0.15400
H238        H  0.34502233  0.75647793  0.78369594     0.01100
H239        H  0.30231957  0.75496540  0.81973251     0.15700
H240        H  0.37286013  0.79000767  0.82538056     0.15500
C241        C  0.34907766  0.78770682  0.65569698     0.87300
C242        C  0.37207711  0.78731288  0.65657295    -0.52900
C243        C  0.37339381  0.77551535  0.66833196     0.10200
C244        C  0.35143678  0.76563702  0.67838369     0.21200
C245        C  0.32855535  0.76128681  0.65686614    -0.53700
C246        C  0.32995089  0.74971406  0.66860242     0.10300
C247        C  0.34842988  0.79891285  0.67023605    -0.53200
C248        C  0.34962390  0.78716985  0.68200370     0.10900
H249        H  0.38545490  0.79465484  0.64802731     0.15400
H250        H  0.35190800  0.75647897  0.68827486     0.01100
H251        H  0.31537909  0.75192578  0.64838959     0.15700
H252        H  0.34707836  0.81437849  0.67145230     0.15500
C253        C  0.49896766  0.70006273  0.81167178     0.87300
C254        C  0.51297097  0.70530722  0.79731362    -0.52900
C255        C  0.50003080  0.70401903  0.78542678     0.10200
C256        C  0.47443948  0.69751321  0.78890465     0.21200
C257        C  0.49053897  0.71760441  0.81175122    -0.53700
C258        C  0.47712482  0.71602517  0.80008399     0.10300
C259        C  0.47601761  0.67520140  0.80917179    -0.53200
C260        C  0.46287565  0.67396517  0.79746221     0.10900
H261        H  0.53094907  0.70897981  0.79636550     0.15400
H262        H  0.46406864  0.69587042  0.77911372     0.01100
H263        H  0.49407191  0.72950369  0.82080931     0.15700
H264        H  0.46974133  0.66049769  0.81676503     0.15500
C265        C  0.50511368  0.69950140  0.65219365     0.87300
C266        C  0.48097207  0.67507851  0.65171618    -0.52900
C267        C  0.46525044  0.67158734  0.66249533     0.10200
C268        C  0.47527230  0.69290499  0.67296750     0.21200
C269        C  0.49733476  0.71768076  0.65222263    -0.53700
C270        C  0.48181754  0.71431498  0.66312710     0.10300
C271        C  0.51498027  0.70103266  0.66745011    -0.53200
C272        C  0.49939950  0.69759085  0.67831526     0.10900
H273        H  0.47651424  0.66190136  0.64330129     0.15400
H274        H  0.46266786  0.69017617  0.68181023     0.01100
H275        H  0.50259204  0.73140054  0.64412853     0.15700
H276        H  0.53272122  0.70452859  0.66946842     0.15500
C277        C  0.24792778  0.53623114  0.65161821     0.87300
C278        C  0.24802133  0.55933558  0.65291186    -0.52900
C279        C  0.26045448  0.57342111  0.66438253     0.10200
C280        C  0.27114242  0.56260344  0.67397149     0.21200
C281        C  0.27448031  0.54421607  0.65221108    -0.53700
C282        C  0.28684102  0.55838425  0.66372967     0.10300
C283        C  0.23735699  0.52347830  0.66630146    -0.53200
C284        C  0.24980543  0.53754061  0.67800225     0.10900
H285        H  0.23946049  0.56442662  0.64499735     0.15400
H286        H  0.28100926  0.57367819  0.68351021     0.01100
H287        H  0.28304566  0.54042142  0.64354212     0.15700
H288        H  0.22184927  0.50543904  0.66750479     0.15500
C289        C  0.24549139  0.53965680  0.81169245     0.87300
C290        C  0.23611201  0.52901147  0.79657538    -0.52900
C291        C  0.24948757  0.54392544  0.78544861     0.10200
C292        C  0.27117414  0.56804486  0.79044039     0.21200
C293        C  0.27196789  0.54708847  0.81175059    -0.53700
C294        C  0.28545599  0.56195535  0.80064864     0.10300
C295        C  0.24749101  0.56398971  0.81154742    -0.53200
C296        C  0.26082185  0.57877321  0.80041454     0.10900
H297        H  0.21996845  0.51151872  0.79486038     0.15400
H298        H  0.28177433  0.57995389  0.78130411     0.01100
H299        H  0.27990606  0.54228827  0.82016452     0.15700
H300        H  0.23980264  0.56947361  0.81986566     0.15500
C301        C  0.54464210  0.33350861  0.31387146     0.87300
C302        C  0.53327928  0.33260706  0.29918889    -0.52900
C303        C  0.54736576  0.33523148  0.28758872     0.10200
C304        C  0.57142292  0.33858763  0.29156860     0.21200
C305        C  0.55099159  0.31424734  0.31276354    -0.53700
C306        C  0.56495649  0.31683774  0.30106193     0.10300
C307        C  0.56948198  0.35705741  0.31368663    -0.53200
C308        C  0.58327191  0.35976816  0.30203365     0.10900
H309        H  0.51566262  0.32985261  0.29807232     0.15400
H310        H  0.58255304  0.34089860  0.28194948     0.01100
H311        H  0.54697424  0.30107850  0.32106042     0.15700
H312        H  0.57634495  0.36987280  0.32252718     0.15500
C313        C  0.54946736  0.32598761  0.15483864     0.87300
C314        C  0.57397444  0.34973826  0.15614656    -0.52900
C315        C  0.58716189  0.35105467  0.16782204     0.10200
C316        C  0.57491409  0.32810210  0.17701209     0.21200
C317        C  0.55641054  0.30716993  0.15459201    -0.53700
C318        C  0.56958579  0.30825281  0.16623167     0.10300
C319        C  0.53717754  0.32293110  0.16950684    -0.53200
C320        C  0.55048039  0.32399003  0.18108066     0.10900
H321        H  0.58090477  0.36381526  0.14805848     0.15400
H322        H  0.58563105  0.32896932  0.18648355     0.01100
H323        H  0.55376644  0.29586119  0.14537975     0.15700
H324        H  0.51969984  0.32053355  0.17064112     0.15500
C325        C  0.68684019  0.23276821  0.31836024     0.87300
C326        C  0.69296823  0.22704078  0.30346362    -0.52900
C327        C  0.69176253  0.23997561  0.29240329     0.10200
C328        C  0.68523602  0.25793921  0.29719632     0.21200
C329        C  0.70397607  0.26011294  0.32017426    -0.53700
C330        C  0.70337578  0.27309826  0.30894774     0.10300
C331        C  0.66212351  0.22970464  0.31633316    -0.53200
C332        C  0.66136291  0.24325197  0.30544792     0.10900
H333        H  0.69723787  0.21353434  0.30177537     0.15400
H334        H  0.68515035  0.26898422  0.28821179     0.01100
H335        H  0.71529481  0.26855578  0.32955753     0.15700
H336        H  0.64689419  0.21890429  0.32332897     0.15500
C337        C  0.71524576  0.24764306  0.15948701     0.87300
C338        C  0.69074634  0.24493819  0.15876946    -0.52900
C339        C  0.68643389  0.25631404  0.16951318     0.10200
C340        C  0.70733304  0.26927497  0.18029973     0.21200
C341        C  0.73341430  0.27506950  0.16006521    -0.53700
C342        C  0.72907777  0.28644757  0.17086241     0.10300
C343        C  0.71623346  0.23887978  0.17470640    -0.53200
C344        C  0.71210441  0.25018906  0.18555730     0.10900
H345        H  0.67805193  0.23500797  0.15017663     0.15400
H346        H  0.70402205  0.27838919  0.18913378     0.01100
H347        H  0.74817541  0.28508515  0.15262407     0.15700
H348        H  0.71979349  0.22495089  0.17672794     0.15500
C349        C  0.79968965  0.49019986  0.31630613     0.87300
C350        C  0.81063548  0.50088111  0.30137390    -0.52900
C351        C  0.79707195  0.48690853  0.29000945     0.10200
C352        C  0.77385732  0.46369364  0.29457543     0.21200
C353        C  0.77430230  0.48585138  0.31560453    -0.53700
C354        C  0.76064307  0.47170608  0.30434933     0.10300
C355        C  0.79507847  0.46479499  0.31612180    -0.53200
C356        C  0.78164767  0.45098323  0.30478055     0.10900
H357        H  0.82760562  0.51776919  0.29994176     0.15400
H358        H  0.76317955  0.45223840  0.28535241     0.01100
H359        H  0.76703473  0.49252166  0.32332532     0.15700
H360        H  0.80095833  0.45796742  0.32471265     0.15500
C361        C  0.79960993  0.49864192  0.15701472     0.87300
C362        C  0.79766931  0.47443933  0.15740722    -0.52900
C363        C  0.78584475  0.46057904  0.16917998     0.10200
C364        C  0.77668132  0.47209334  0.17946648     0.21200
C365        C  0.77337900  0.49180087  0.15836752    -0.53700
C366        C  0.76122266  0.47740747  0.16990737     0.10300
C367        C  0.81095853  0.51060750  0.17160491    -0.53200
C368        C  0.79881043  0.49660109  0.18327884     0.10900
H369        H  0.80428039  0.46849059  0.14869385     0.15400
H370        H  0.76737668  0.46097769  0.18913314     0.01100
H371        H  0.76435694  0.49671547  0.15080225     0.15700
H372        H  0.82698076  0.52840046  0.17261652     0.15500
In373      In  0.55865649  0.87369042  0.03096264     1.36900
C374        C  0.52334399  0.86626060  0.01324777     0.78400
O375        O  0.56128368  0.90863479  0.03412307    -0.60100
O376        O  0.59350725  0.90942821  0.03445887    -0.51000
C377        C  0.54847689  0.85807556  0.05836328     0.71100
O378        O  0.56949391  0.86889218  0.05329980    -0.45800
C379        C  0.57455831  0.84891182  0.01728180     0.75800
O380        O  0.51983709  0.85885148  0.02613605    -0.57700
O381        O  0.58349919  0.87094789  0.01518860    -0.47800
O382        O  0.54493249  0.87676974  0.00923747    -0.54100
C383        C  0.58366907  0.92120767  0.03541791     0.85900
O384        O  0.53285411  0.85503377  0.04934089    -0.56000
O385        O  0.55792563  0.83984477  0.02653357    -0.59300
In386      In  0.56402727  0.68822023  0.93971738     1.36900
C387        C  0.52654251  0.65173601  0.95397467     0.78400
O388        O  0.57216488  0.66045572  0.93426278    -0.60100
O389        O  0.59983578  0.69252103  0.94392044    -0.51000
C390        C  0.55905048  0.69892179  0.91234275     0.71100
O391        O  0.54396545  0.69401767  0.92225303    -0.45800
C392        C  0.57778943  0.72835900  0.95466658     0.75800
O393        O  0.52841517  0.65263797  0.94040026    -0.57700
O394        O  0.58798521  0.71696776  0.95583531    -0.47800
O395        O  0.54333387  0.66993239  0.96019748    -0.54100
C396        C  0.59321673  0.67200467  0.93914018     0.85900
O397        O  0.57719363  0.69894094  0.91645558    -0.56000
O398        O  0.56107473  0.71962099  0.94552898    -0.59300
In399      In  0.15648852  0.67129858  0.02411333     1.36900
C400        C  0.15667554  0.63713363  0.00904031     0.78400
O401        O  0.12591878  0.67217101  0.03403493    -0.60100
O402        O  0.11971866  0.65282435  0.01457767    -0.51000
C403        C  0.17027456  0.66925580  0.05099773     0.71100
O404        O  0.17481776  0.66086441  0.04011929    -0.45800
C405        C  0.18593953  0.71418438  0.01180542     0.75800
O406        O  0.14322859  0.63271525  0.01986199    -0.57700
O407        O  0.19200011  0.70590050  0.02193692    -0.47800
O408        O  0.17025041  0.65910435  0.00612418    -0.54100
C409        C  0.11104812  0.65895252  0.02450067     0.85900
O410        O  0.15883168  0.67895987  0.04808287    -0.56000
O411        O  0.16424401  0.70093114  0.00831864    -0.59300
In412      In  0.36318347  0.87374300  0.94174307     1.36900
C413        C  0.39696908  0.86894217  0.95410381     0.78400
O414        O  0.36940769  0.90716172  0.93129992    -0.60100
O415        O  0.37601339  0.90830889  0.95373069    -0.51000
C416        C  0.35808024  0.86103988  0.91391662     0.71100
O417        O  0.37517964  0.86396058  0.92160343    -0.45800
C418        C  0.32114828  0.84523554  0.95507665     0.75800
O419        O  0.40172871  0.88673569  0.94648332    -0.57700
O420        O  0.33554525  0.86667240  0.95882310    -0.47800
O421        O  0.37490666  0.85328698  0.95506334    -0.54100
C422        C  0.37648643  0.91960810  0.94263995     0.85900
O423        O  0.34379384  0.86492594  0.92048719    -0.56000
O424        O  0.32830746  0.83861842  0.94455494    -0.59300
In425      In  0.15920832  0.47352318  0.93768245     1.36900
C426        C  0.15854054  0.50777150  0.95249880     0.78400
O427        O  0.12274064  0.45837261  0.92809355    -0.60100
O428        O  0.12511722  0.44114714  0.94659050    -0.51000
C429        C  0.17513251  0.48164263  0.91038076     0.71100
O430        O  0.17808799  0.49783355  0.91892309    -0.45800
C431        C  0.19104810  0.46711264  0.95111702     0.75800
O432        O  0.16094994  0.50833996  0.93895349    -0.57700
O433        O  0.17043476  0.44988480  0.94766861    -0.47800
O434        O  0.15670341  0.48976490  0.95843093    -0.54100
C435        C  0.11165814  0.44224790  0.93746362     0.85900
O436        O  0.16457441  0.46100236  0.91598995    -0.56000
O437        O  0.19545498  0.48730842  0.94720773    -0.59300
In438      In  0.35710441  0.47134375  0.02202498     1.36900
C439        C  0.39360952  0.50904323  0.00849313     0.78400
O440        O  0.35736827  0.44011454  0.03138327    -0.60100
O441        O  0.36993955  0.45064374  0.01000117    -0.51000
C442        C  0.35545855  0.48135337  0.04982710     0.71100
O443        O  0.34040225  0.46145212  0.04418593    -0.45800
C444        C  0.31660648  0.46274245  0.00981979     0.75800
O445        O  0.37228716  0.49839720  0.00411969    -0.57700
O446        O  0.32923867  0.48000303  0.01822983    -0.47800
O447        O  0.39632450  0.50032489  0.01990226    -0.54100
C448        C  0.36675135  0.43703274  0.02044319     0.85900
O449        O  0.37120272  0.49621262  0.04114494    -0.56000
O450        O  0.32413471  0.44901096  0.00808530    -0.59300
In451      In  0.88556382  0.55001552  0.03051353     1.36900
C452        C  0.88400328  0.51531451  0.01498899     0.78400
O453        O  0.84906310  0.53652699  0.02168536    -0.60100
O454        O  0.87512410  0.57359793  0.01970109    -0.51000
C455        C  0.87291402  0.54612022  0.05817768     0.71100
O456        O  0.87341363  0.52990030  0.05137884    -0.45800
C457        C  0.93280596  0.57982341  0.03150644     0.75800
O458        O  0.87456495  0.51173651  0.02736436    -0.57700
O459        O  0.91994244  0.58233147  0.02259497    -0.47800
O460        O  0.89395515  0.53657463  0.01058801    -0.54100
C461        C  0.85396758  0.55659515  0.01713095     0.85900
O462        O  0.87863380  0.56440175  0.05070820    -0.56000
O463        O  0.92129491  0.56272836  0.04023824    -0.59300
In464      In  0.69489927  0.55539024  0.93998710     1.36900
C465        C  0.66132941  0.51992149  0.95633327     0.78400
O466        O  0.72021160  0.54434146  0.94626537    -0.60100
O467        O  0.72686307  0.57702280  0.95467523    -0.51000
C468        C  0.69977966  0.54928924  0.91174477     0.71100
O469        O  0.68244946  0.53408465  0.91938321    -0.45800
C470        C  0.67921798  0.58494248  0.94013043     0.75800
O471        O  0.66662913  0.51667797  0.94379091    -0.57700
O472        O  0.70116514  0.59261449  0.94145303    -0.47800
O473        O  0.67370472  0.54131643  0.96063188    -0.54100
C474        C  0.73295385  0.56200556  0.95439734     0.85900
O475        O  0.71468729  0.56803784  0.91852898    -0.56000
O476        O  0.66606320  0.56275693  0.93795068    -0.59300
In477      In  0.68865075  0.14802862  0.03803003     1.36900
C478        C  0.65404899  0.14610337  0.02217690     0.78400
O479        O  0.71252467  0.18531733  0.02924766    -0.60100
O480        O  0.72242925  0.16050852  0.02482974    -0.51000
C481        C  0.69700699  0.16409096  0.06527066     0.71100
O482        O  0.67876557  0.15926384  0.05817678    -0.45800
C483        C  0.67185152  0.10128042  0.04116191     0.75800
O484        O  0.65977215  0.15539909  0.03456314    -0.57700
O485        O  0.68987833  0.11504951  0.03342049    -0.47800
O486        O  0.66604007  0.13760658  0.01787266    -0.54100
C487        C  0.72702966  0.18145510  0.02298027     0.85900
O488        O  0.71141813  0.16065599  0.05838233    -0.56000
O489        O  0.66326827  0.11169573  0.04765499    -0.59300
In490      In  0.88625500  0.35110661  0.94414659     1.36900
C491        C  0.88593577  0.38547060  0.95907305     0.78400
O492        O  0.84827922  0.32233075  0.95000088    -0.60100
O493        O  0.87597234  0.31999834  0.95923228    -0.51000
C494        C  0.87293266  0.34486113  0.91622632     0.71100
O495        O  0.86778535  0.35553112  0.92532374    -0.45800
C496        C  0.93321418  0.36791863  0.94390579     0.75800
O497        O  0.88319915  0.38315494  0.94556368    -0.57700
O498        O  0.91732797  0.34596752  0.94528456    -0.47800
O499        O  0.88879581  0.37006203  0.96501409    -0.54100
C500        C  0.85377040  0.31112065  0.95841479     0.85900
O501        O  0.88477025  0.33677730  0.92144968    -0.56000
O502        O  0.92495691  0.38099338  0.94228915    -0.59300
In503      In  0.49433289  0.14584328  0.94511031     1.36900
C504        C  0.52793646  0.14801881  0.96225366     0.78400
O505        O  0.50455826  0.18343236  0.94971233    -0.60100
O506        O  0.47271246  0.15533696  0.95929588    -0.51000
C507        C  0.50130501  0.15887595  0.91728076     0.71100
O508        O  0.51737149  0.16043263  0.92534815    -0.45800
C509        C  0.46392451  0.09870864  0.94286178     0.75800
O510        O  0.53209045  0.15613770  0.94953493    -0.57700
O511        O  0.45765002  0.11225076  0.94784581    -0.47800
O512        O  0.50662551  0.13923053  0.96632625    -0.54100
C513        C  0.48699731  0.17762775  0.95788443     0.85900
O514        O  0.48123876  0.15022701  0.92344685    -0.56000
O515        O  0.48542226  0.10945155  0.93874661    -0.59300
In516      In  0.49195570  0.34604448  0.02781898     1.36900
C517        C  0.52678222  0.38432282  0.01371040     0.78400
O518        O  0.50686873  0.32485800  0.01924969    -0.60100
O519        O  0.46952153  0.30916163  0.01780597    -0.51000
C520        C  0.49787995  0.33909490  0.05549179     0.71100
O521        O  0.51481008  0.35328928  0.04722515    -0.45800
C522        C  0.45911050  0.35765595  0.02692804     0.75800
O523        O  0.52730758  0.38127851  0.02710963    -0.57700
O524        O  0.45932641  0.34313773  0.01822117    -0.47800
O525        O  0.50838457  0.36767951  0.00749750    -0.54100
C526        C  0.48705115  0.30720533  0.01513023     0.85900
O527        O  0.47760300  0.32785760  0.04948104    -0.56000
O528        O  0.47523258  0.36557638  0.03641680    -0.59300
C529        C  0.34533243  0.52877437  0.15234021     0.87300
C530        C  0.34515633  0.51609407  0.16643578    -0.52900
C531        C  0.34557857  0.52802444  0.17865923     0.10200
C532        C  0.34595789  0.55103186  0.17580552     0.21200
C533        C  0.32377043  0.53146483  0.15397908    -0.53700
C534        C  0.32417639  0.54341932  0.16612074     0.10300
C535        C  0.36749121  0.55425843  0.15383860    -0.53200
C536        C  0.36778175  0.56614669  0.16595761     0.10900
H537        H  0.34478210  0.49958007  0.16696171     0.15400
H538        H  0.34588590  0.56015157  0.18585058     0.01100
H539        H  0.31034063  0.52591314  0.14560305     0.15700
H540        H  0.38153258  0.56236330  0.14568196     0.15500
C541        C  0.34456069  0.53110567  0.31153829     0.87300
C542        C  0.36817136  0.55575133  0.31219563    -0.52900
C543        C  0.37138634  0.57082671  0.30118949     0.10200
C544        C  0.35059827  0.55998006  0.29040470     0.21200
C545        C  0.32519594  0.53744502  0.31079734    -0.53700
C546        C  0.32863556  0.55289548  0.29984090     0.10300
C547        C  0.34440628  0.52125011  0.29642904    -0.53200
C548        C  0.34727820  0.53625934  0.28535392     0.10900
H549        H  0.38101303  0.56103511  0.32091877     0.15400
H550        H  0.35331164  0.57215002  0.28133554     0.01100
H551        H  0.31123313  0.53221367  0.31876819     0.15700
H552        H  0.34165350  0.50374307  0.29466383     0.15500
C553        C  0.22724037  0.65386101  0.14932634     0.87300
C554        C  0.21864742  0.65750512  0.16401618    -0.52900
C555        C  0.23125992  0.65699789  0.17549506     0.10200
C556        C  0.25151138  0.65339916  0.17136028     0.21200
C557        C  0.25427269  0.67319113  0.14871869    -0.53700
C558        C  0.26693415  0.67313797  0.16030413     0.10300
C559        C  0.22665966  0.63027072  0.15107683    -0.53200
C560        C  0.23957648  0.63007993  0.16256483     0.10900
H561        H  0.20382372  0.65998936  0.16523108     0.15400
H562        H  0.26197706  0.65394048  0.18083093     0.01100
H563        H  0.26275118  0.68520457  0.13958314     0.15700
H564        H  0.21818048  0.61550752  0.14353897     0.15500
C565        C  0.24191594  0.67565865  0.30862070     0.87300
C566        C  0.24129114  0.65214783  0.30943070    -0.52900
C567        C  0.25303906  0.64899281  0.29842300     0.10200
C568        C  0.26400703  0.66942715  0.28734402     0.21200
C569        C  0.26863938  0.69548503  0.30720343    -0.53700
C570        C  0.28027923  0.69197104  0.29628850     0.10300
C571        C  0.23141480  0.67492036  0.29355185    -0.53200
C572        C  0.24318073  0.67175900  0.28240233     0.10900
H573        H  0.23329980  0.63965877  0.31841106     0.15400
H574        H  0.27368517  0.66689828  0.27840968     0.01100
H575        H  0.27795129  0.71002012  0.31493355     0.15700
H576        H  0.21674748  0.67733258  0.29161944     0.15500
C577        C  0.48626621  0.78261426  0.15679052     0.87300
C578        C  0.49707816  0.79427817  0.17148871    -0.52900
C579        C  0.48281190  0.78190598  0.18304695     0.10200
C580        C  0.45903592  0.75889029  0.17890768     0.21200
C581        C  0.48047339  0.75672183  0.15821170    -0.53700
C582        C  0.46628572  0.74430294  0.16984952     0.10300
C583        C  0.46135247  0.77906753  0.15658568    -0.53200
C584        C  0.44667817  0.76622918  0.16790754     0.10900
H585        H  0.51452964  0.81070636  0.17265012     0.15400
H586        H  0.44816128  0.74912982  0.18852631     0.01100
H587        H  0.48499892  0.74799881  0.15013723     0.15700
H588        H  0.45549906  0.78525746  0.14763527     0.15500
C589        C  0.49619129  0.78700524  0.31670610     0.87300
C590        C  0.47165911  0.78437126  0.31615529    -0.52900
C591        C  0.45803713  0.77196049  0.30450069     0.10200
C592        C  0.47033375  0.76373097  0.29419156     0.21200
C593        C  0.49021782  0.76107823  0.31541442    -0.53700
C594        C  0.47632596  0.74871182  0.30371222     0.10300
C595        C  0.50815856  0.79870410  0.30198232    -0.53200
C596        C  0.49444100  0.78617703  0.29029558     0.10900
H597        H  0.46522970  0.79091728  0.32463579     0.15400
H598        H  0.45961710  0.75431163  0.28444614     0.01100
H599        H  0.49514294  0.75290535  0.32367413     0.15700
H600        H  0.52577821  0.81474815  0.30064304     0.15500
C601        C  0.47982098  0.79464494  0.22265790    -0.27400
C602        C  0.49967986  0.79511763  0.22840660     0.06200
C603        C  0.51514743  0.79314748  0.21882878     0.25800
C604        C  0.51028656  0.79003209  0.20392894    -0.11900
C605        C  0.48991753  0.78870773  0.19836560    -0.25800
C606        C  0.47505644  0.79160257  0.20781603     0.36600
C607        C  0.50290061  0.79593377  0.24441563     0.06200
F608        F  0.53479014  0.79399239  0.22388146    -0.19600
H609        H  0.52193971  0.78778312  0.19679801     0.16100
F610        F  0.45589209  0.79152006  0.20267777    -0.23300
H611        H  0.46748032  0.79588682  0.22973867     0.17800
C612        C  0.50061293  0.81213575  0.25307852     0.25800
C613        C  0.49997598  0.81027495  0.26821505    -0.11900
C614        C  0.50154662  0.79225067  0.27494511    -0.25900
C615        C  0.50490517  0.77675828  0.26638599     0.36800
C616        C  0.50574277  0.77870726  0.25127889    -0.27500
F617        F  0.49811879  0.82922009  0.24689124    -0.19600
H618        H  0.49683058  0.82199600  0.27464744     0.16000
F619        F  0.50598698  0.75884272  0.27263740    -0.23300
H620        H  0.50714840  0.76577877  0.24492438     0.17900
C621        C  0.39199071  0.74223837  0.31290383    -0.27400
C622        C  0.38294710  0.74290289  0.29935400     0.06200
C623        C  0.39874105  0.75432677  0.28770687     0.25800
C624        C  0.42332535  0.76443555  0.28954724    -0.11900
C625        C  0.43243358  0.76358843  0.30307442    -0.25800
C626        C  0.41654625  0.75254469  0.31481079     0.36600
C627        C  0.35686988  0.73022027  0.29729093     0.06200
F628        F  0.39025425  0.75491003  0.27447226    -0.19600
H629        H  0.43524634  0.77265806  0.28036510     0.16100
F630        F  0.42452457  0.75041798  0.32788100    -0.23300
H631        H  0.37990421  0.73321265  0.32192223     0.17800
C632        C  0.34312419  0.70515204  0.29642691     0.25800
C633        C  0.31824932  0.69294598  0.29530934    -0.11900
C634        C  0.30670835  0.70553500  0.29537826    -0.25900
C635        C  0.32052669  0.73068961  0.29595424     0.36800
C636        C  0.34551618  0.74294944  0.29678878    -0.27500
F637        F  0.35377670  0.69250439  0.29699386    -0.19600
H638        H  0.30794369  0.67356852  0.29504881     0.16000
F639        F  0.30984026  0.74331378  0.29583315    -0.23300
H640        H  0.35598189  0.76231030  0.29743420     0.17900
C641        C  0.38112948  0.73780408  0.17910874    -0.27400
C642        C  0.36987376  0.73264045  0.16558744     0.06200
C643        C  0.38378868  0.73933282  0.15298757     0.25800
C644        C  0.40857964  0.75051728  0.15390307    -0.11900
C645        C  0.42021998  0.75572452  0.16742902    -0.25800
C646        C  0.40604752  0.74929524  0.18008230     0.36600
C647        C  0.34353039  0.71802717  0.16458920     0.06200
F648        F  0.37324643  0.73381242  0.13976880    -0.19600
H649        H  0.41842472  0.75413015  0.14387967     0.16100
F650        F  0.41594030  0.75383842  0.19342230    -0.23300
H651        H  0.37050145  0.73252340  0.18893632     0.17800
C652        C  0.33107351  0.69390806  0.16875028     0.25800
C653        C  0.30627495  0.67954108  0.16720713    -0.11900
C654        C  0.29337701  0.68897414  0.16157165    -0.25900
C655        C  0.30592415  0.71321515  0.15731987     0.36800
C656        C  0.33087369  0.72756914  0.15877144    -0.27500
F657        F  0.34305795  0.68407501  0.17388114    -0.19600
H658        H  0.29722729  0.66083384  0.17018824     0.16000
F659        F  0.29412113  0.72317721  0.15208995    -0.23300
H660        H  0.34033984  0.74614881  0.15542439     0.17900
C661        C  0.23449795  0.68472575  0.21172335    -0.27400
C662        C  0.22495495  0.66470987  0.22091885     0.06200
C663        C  0.21478947  0.64180511  0.21478596     0.25800
C664        C  0.21560199  0.63926569  0.19979001    -0.11900
C665        C  0.22623380  0.65941834  0.19073428    -0.25800
C666        C  0.23522188  0.68213506  0.19673291     0.36600
C667        C  0.22882266  0.66814421  0.23676602     0.06200
F668        F  0.20581799  0.62214146  0.22334790    -0.19600
H669        H  0.20890632  0.62167198  0.19528077     0.16100
F670        F  0.24618886  0.70192271  0.18820027    -0.23300
H671        H  0.24247611  0.70251230  0.21624325     0.17800
C672        C  0.25225431  0.68248360  0.24212587     0.25800
C673        C  0.25651007  0.68408547  0.25698262    -0.11900
C674        C  0.23755778  0.67155840  0.26684488    -0.25900
C675        C  0.21395983  0.65782654  0.26157271     0.36800
C676        C  0.20968521  0.65601338  0.24660886    -0.27500
F677        F  0.27121331  0.69399734  0.23293589    -0.19600
H678        H  0.27480097  0.69489632  0.26078717     0.16000
F679        F  0.19522531  0.64520264  0.27078893    -0.23300
H680        H  0.19151072  0.64482158  0.24267927     0.17900
C681        C  0.46270003  0.68498065  0.30507997    -0.27400
C682        C  0.43976989  0.67220222  0.29896087     0.06200
C683        C  0.42967673  0.68458207  0.29366010     0.25800
C684        C  0.44183537  0.70933796  0.29513981    -0.11900
C685        C  0.46471326  0.72243962  0.30150339    -0.25800
C686        C  0.47534084  0.70998490  0.30612511     0.36600
C687        C  0.42502773  0.64591441  0.29963496     0.06200
F688        F  0.40740852  0.67253754  0.28779518    -0.19600
H689        H  0.43262452  0.71793233  0.29182336     0.16100
F690        F  0.49782452  0.72180197  0.31162911    -0.23300
H691        H  0.47064712  0.67552726  0.30920098     0.17800
C692        C  0.41868899  0.63203368  0.28700552     0.25800
C693        C  0.40191730  0.60736338  0.28766691    -0.11900
C694        C  0.39110842  0.59635204  0.30088924    -0.25900
C695        C  0.39768941  0.61036845  0.31354745     0.36800
C696        C  0.41469685  0.63490018  0.31288784    -0.27500
F697        F  0.42821898  0.64246881  0.27402577    -0.19600
H698        H  0.39696904  0.59693100  0.27780119     0.16000
F699        F  0.38645992  0.60078979  0.32635283    -0.23300
H700        H  0.41892141  0.64557332  0.32261882     0.17900
C701        C  0.31410108  0.60067330  0.29520138    -0.27400
C702        C  0.28959467  0.58785675  0.29830584     0.06200
C703        C  0.27760408  0.56336919  0.30152624     0.25800
C704        C  0.29020148  0.55187723  0.30169102    -0.11900
C705        C  0.31494047  0.56473504  0.29872108    -0.25800
C706        C  0.32675194  0.58936403  0.29544631     0.36600
C707        C  0.27715656  0.60069931  0.29874203     0.06200
F708        F  0.25386474  0.55075268  0.30471304    -0.19600
H709        H  0.28065931  0.53296643  0.30423045     0.16100
F710        F  0.35074235  0.60301048  0.29323872    -0.23300
H711        H  0.32357433  0.61968173  0.29290603     0.17800
C712        C  0.27682137  0.61185233  0.31156130     0.25800
C713        C  0.26765769  0.62649787  0.31154641    -0.11900
C714        C  0.25895321  0.63042773  0.29870823    -0.25900
C715        C  0.25862461  0.61862748  0.28597381     0.36800
C716        C  0.26770222  0.60384989  0.28602128    -0.27500
F717        F  0.28639076  0.60945705  0.32390769    -0.19600
H718        H  0.26854644  0.63578390  0.32141114     0.16000
F719        F  0.24984021  0.62163297  0.27347705    -0.23300
H720        H  0.26801393  0.59540830  0.27605191     0.17900
C721        C  0.40906335  0.62650632  0.18393596    -0.27400
C722        C  0.41744167  0.64169716  0.17184922     0.06200
C723        C  0.41036706  0.63197067  0.15795049     0.25800
C724        C  0.39464494  0.60741053  0.15617627    -0.11900
C725        C  0.38585591  0.59199319  0.16821994    -0.25800
C726        C  0.39353317  0.60175419  0.18216707     0.36600
C727        C  0.43156605  0.66785920  0.17360223     0.06200
F728        F  0.41766979  0.64641937  0.14613069    -0.19600
H729        H  0.38866051  0.60062458  0.14533885     0.16100
F730        F  0.38629142  0.58752585  0.19406624    -0.23300
H731        H  0.41437417  0.63388601  0.19472890     0.17800
C732        C  0.42044354  0.67933007  0.17885133     0.25800
C733        C  0.43211864  0.70415138  0.17792157    -0.11900
C734        C  0.45539027  0.71812031  0.17207906    -0.25900
C735        C  0.46708543  0.70654164  0.16769243     0.36800
C736        C  0.45504543  0.68156771  0.16825610    -0.27500
F737        F  0.39761686  0.66636930  0.18394186    -0.19600
H738        H  0.42222547  0.71211835  0.18111815     0.16000
F739        F  0.48997831  0.71916947  0.16273054    -0.23300
H740        H  0.46381350  0.67283825  0.16420211     0.17900
C741        C  0.26114157  0.59309810  0.18005239    -0.27400
C742        C  0.26491586  0.58283692  0.16790147     0.03800
C743        C  0.25721355  0.58543982  0.15428916     0.25800
C744        C  0.24781927  0.59979461  0.15272156    -0.11900
C745        C  0.24536163  0.61139657  0.16474981    -0.25800
C746        C  0.25107481  0.60688260  0.17857243     0.36600
C747        C  0.27881806  0.57138566  0.16918257     0.06200
F748        F  0.26033497  0.57549017  0.14232809    -0.19600
H749        H  0.24380332  0.60283175  0.14190757     0.16100
F750        F  0.24712800  0.61582243  0.19069970    -0.23300
H751        H  0.26642907  0.59077248  0.19068939     0.17800
C752        C  0.30238138  0.58453761  0.17446767     0.25800
C753        C  0.31662386  0.57489660  0.17397012    -0.11900
C754        C  0.30763014  0.55187823  0.16832617    -0.25900
C755        C  0.28356378  0.53821775  0.16377823     0.36800
C756        C  0.26941656  0.54802682  0.16409724    -0.27500
F757        F  0.31213973  0.60731058  0.17927308    -0.19600
H758        H  0.33511473  0.58604344  0.17734046     0.16000
F759        F  0.27370783  0.51546460  0.15894015    -0.23300
H760        H  0.25118712  0.53752115  0.16015828     0.17900
C761        C  0.36721671  0.52898733  0.21631010    -0.27400
C762        C  0.34545028  0.51745864  0.22399749     0.06200
C763        C  0.32380690  0.50571893  0.21621474     0.25800
C764        C  0.32400009  0.50731243  0.20112949    -0.11900
C765        C  0.34570399  0.52032285  0.19358160    -0.25800
C766        C  0.36736244  0.53047674  0.20118006     0.36600
C767        C  0.34529744  0.52075514  0.23988933     0.06200
F768        F  0.30245450  0.49388573  0.22327523    -0.19600
H769        H  0.30718884  0.49971020  0.19540293     0.16100
F770        F  0.38859305  0.54339302  0.19405684    -0.23300
H771        H  0.38408927  0.53831997  0.22205619     0.17800
C772        C  0.35876728  0.51600446  0.24942498     0.25800
C773        C  0.35896386  0.52046456  0.26430394    -0.11900
C774        C  0.34608082  0.53008136  0.26980329    -0.25900
C775        C  0.33249029  0.53457546  0.26025105     0.36800
C776        C  0.33218728  0.53000275  0.24549934    -0.27500
F777        F  0.37158975  0.50698820  0.24437512    -0.19600
H778        H  0.36960299  0.51694207  0.27148162     0.16000
F779        F  0.31913728  0.54307381  0.26517819    -0.23300
H780        H  0.32194553  0.53411996  0.23836150     0.17900
C781        C  0.49801610  0.23710769  0.97064340    -0.27400
C782        C  0.48208351  0.23011670  0.98236617     0.06200
C783        C  0.46636838  0.20558053  0.98528554     0.25800
C784        C  0.46741148  0.18846187  0.97695585    -0.11900
C785        C  0.48407079  0.19553993  0.96557645    -0.25800
C786        C  0.49896921  0.22007310  0.96227087     0.36600
C787        C  0.48264015  0.24870772  0.99162985     0.06200
F788        F  0.45081137  0.19823754  0.99658066    -0.19600
H789        H  0.45571019  0.16970434  0.97971176     0.16100
F790        F  0.51469830  0.22769934  0.95105180    -0.23300
H791        H  0.50994669  0.25590895  0.96805537     0.17800
C792        C  0.50407821  0.26623888  0.99830595     0.25800
C793        C  0.50515715  0.28483459  0.00615441    -0.11900
C794        C  0.48490592  0.28637367  0.00754424    -0.25900
C795        C  0.46323139  0.26842733  0.00117040     0.36800
C796        C  0.46216449  0.24974857  0.99332229    -0.27500
F797        F  0.52401111  0.26533830  0.99724142    -0.19600
H798        H  0.52200938  0.29823470  0.01102839     0.16000
F799        F  0.44325941  0.26925826  0.00213330    -0.23300
H800        H  0.44551169  0.23645565  0.98820435     0.17900
C801        C  0.55920346  0.14026218  0.99416004    -0.27400
C802        C  0.58156373  0.14734693  0.98810973     0.06200
C803        C  0.58626886  0.15511139  0.97362437     0.25800
C804        C  0.56887173  0.15560625  0.96539928    -0.11900
C805        C  0.54641773  0.14831137  0.97139484    -0.25800
C806        C  0.54178286  0.14074566  0.98593499     0.36600
C807        C  0.59984551  0.14661625  0.99693982     0.06200
F808        F  0.60784114  0.16262088  0.96747836    -0.19600
H809        H  0.57294686  0.16155414  0.95425319     0.16100
F810        F  0.52044814  0.13375728  0.99223360    -0.23300
H811        H  0.55508789  0.13402438  0.00525314     0.17800
C812        C  0.60589643  0.15693667  0.01081373     0.25800
C813        C  0.62329323  0.15638341  0.01897447    -0.11900
C814        C  0.63509654  0.14563722  0.01348863    -0.25900
C815        C  0.62888886  0.13507428  0.99966974     0.36800
C816        C  0.61140975  0.13557435  0.99151472    -0.27500
F817        F  0.59553161  0.16822500  0.01632215    -0.19600
H818        H  0.62775640  0.16470062  0.02956118     0.16000
F819        F  0.63969632  0.12432809  0.99399571    -0.23300
H820        H  0.60679038  0.12718747  0.98094930     0.17900
C821        C  0.77162458  0.24080767  0.00493655    -0.27400
C822        C  0.78294146  0.23413034  0.99491612     0.06200
C823        C  0.77665751  0.21021193  0.99464074     0.25800
C824        C  0.75889427  0.19322106  0.00403641    -0.11900
C825        C  0.74716055  0.19981315  0.01387232    -0.25800
C826        C  0.75400489  0.22394568  0.01434169     0.36600
C827        C  0.80082812  0.25228719  0.98466916     0.06200
F828        F  0.78704400  0.20312756  0.98493372    -0.19600
H829        H  0.75389650  0.17477641  0.00336777     0.16100
F830        F  0.74367796  0.23133665  0.02388129    -0.23300
H831        H  0.77643124  0.25921364  0.00543297     0.17800
C832        C  0.79429132  0.26434672  0.97517321     0.25800
C833        C  0.81147762  0.28283900  0.96635235    -0.11900
C834        C  0.83563513  0.28996647  0.96692288    -0.25900
C835        C  0.84211106  0.27748605  0.97619456     0.36800
C836        C  0.82477193  0.25871044  0.98490446    -0.27500
F837        F  0.77124061  0.25834977  0.97452937    -0.19600
H838        H  0.80591941  0.29201305  0.95931137     0.16000
F839        F  0.86522259  0.28374732  0.97712941    -0.23300
H840        H  0.83017366  0.24969671  0.99220190     0.17900
C841        C  0.58676069  0.44060213  0.00475600    -0.27400
C842        C  0.58343522  0.44454449  0.99026602     0.06200
C843        C  0.56096912  0.42912496  0.98380597     0.25800
C844        C  0.54263360  0.40970815  0.99152772    -0.11900
C845        C  0.54612741  0.40547569  0.00590648    -0.25800
C846        C  0.56827798  0.42140059  0.01256449     0.36600
C847        C  0.60365348  0.46400217  0.98175556     0.06200
F848        F  0.55664320  0.43293717  0.97004993    -0.19600
H849        H  0.52563594  0.39795645  0.98623043     0.16100
F850        F  0.57237097  0.41809727  0.02648346    -0.23300
H851        H  0.60392201  0.45203626  0.00994570     0.17800
C852        C  0.61816622  0.48732144  0.98735442     0.25800
C853        C  0.63707689  0.50531230  0.97910544    -0.11900
C854        C  0.64189868  0.50045340  0.96514736    -0.25900
C855        C  0.62752060  0.47708726  0.95961816     0.36800
C856        C  0.60872783  0.45911243  0.96788489    -0.27500
F857        F  0.61370744  0.49292188  0.00062237    -0.19600
H858        H  0.64780023  0.52316241  0.98360000     0.16000
F859        F  0.63140479  0.47155146  0.94617524    -0.23300
H860        H  0.59816587  0.44121522  0.96343988     0.17900
C861        C  0.89350156  0.48276836  0.98455586    -0.27400
C862        C  0.88374247  0.45986251  0.99054683     0.06200
C863        C  0.87360913  0.45522573  0.00450620     0.25800
C864        C  0.87362466  0.47328141  0.01234332    -0.11900
C865        C  0.88361328  0.49625692  0.00641430    -0.25800
C866        C  0.89340209  0.50079738  0.99235389     0.36600
C867        C  0.88456349  0.44104422  0.98234001     0.06200
F868        F  0.86332209  0.43310931  0.01048685    -0.19600
H869        H  0.86583960  0.46926525  0.02309683     0.16100
F870        F  0.90298591  0.52265626  0.98612418    -0.23300
H871        H  0.90159303  0.48684406  0.97388804     0.17800
C872        C  0.87709401  0.43603005  0.96782472     0.25800
C873        C  0.87772530  0.41803081  0.96033522    -0.11900
C874        C  0.88576940  0.40467798  0.96714101    -0.25900
C875        C  0.89362612  0.40998036  0.98156979     0.36800
C876        C  0.89303121  0.42799927  0.98904655    -0.27500
F877        F  0.86861261  0.44808801  0.96098179    -0.19600
H878        H  0.87161954  0.41433963  0.94922397     0.16000
F879        F  0.90226502  0.39807102  0.98840498    -0.23300
H880        H  0.89943072  0.43193640  0.00009419     0.17900
C881        C  0.79626350  0.54308167  0.99982054    -0.27400
C882        C  0.80393157  0.56399990  0.99179322     0.06200
C883        C  0.82787435  0.58327916  0.99304876     0.25800
C884        C  0.84396687  0.58108301  0.00166957    -0.11900
C885        C  0.83647536  0.55966096  0.00912732    -0.25800
C886        C  0.81230041  0.54079313  0.00829859     0.36600
C887        C  0.78702447  0.56472226  0.98160633     0.06200
F888        F  0.83599754  0.60375664  0.98542004    -0.19600
H889        H  0.86247797  0.59587715  0.00213611     0.16100
F890        F  0.80413076  0.51992470  0.01549867    -0.23300
H891        H  0.77779047  0.52820479  0.99929671     0.17800
C892        C  0.77368988  0.54569597  0.97190026     0.25800
C893        C  0.75671208  0.54541011  0.96288341    -0.11900
C894        C  0.75261186  0.56407969  0.96323946    -0.25900
C895        C  0.76646486  0.58357258  0.97261541     0.36800
C896        C  0.78352241  0.58383290  0.98171393    -0.27500
F897        F  0.77713036  0.52731218  0.97108606    -0.19600
H898        H  0.74645637  0.53025317  0.95574074     0.16000
F899        F  0.76325523  0.60211697  0.97321622    -0.23300
H900        H  0.79354616  0.59865760  0.98911342     0.17900
C901        C  0.38187149  0.39215706  0.03269984    -0.27400
C902        C  0.39734554  0.39409809  0.02158575     0.06200
C903        C  0.40025990  0.40800578  0.00931568     0.25800
C904        C  0.38905022  0.42080795  0.00865301    -0.11900
C905        C  0.37485891  0.42013083  0.02020808    -0.25800
C906        C  0.37077312  0.40507113  0.03208281     0.36600
C907        C  0.41176407  0.38318461  0.02334200     0.06200
F908        F  0.41522088  0.41055841  0.99839574    -0.19600
H909        H  0.39249144  0.43223232  0.99938625     0.16100
F910        F  0.35681951  0.40348639  0.04336773    -0.23300
H911        H  0.37894887  0.38115551  0.04210694     0.17800
C912        C  0.42524461  0.38728627  0.03599245     0.25800
C913        C  0.44016732  0.37847753  0.03720404    -0.11900
C914        C  0.44193626  0.36535866  0.02587975    -0.25900
C915        C  0.42811682  0.36085670  0.01333627     0.36800
C916        C  0.41318919  0.36968691  0.01212134    -0.27500
F917        F  0.42484771  0.40075140  0.04693591    -0.19600
H918        H  0.45069125  0.38230136  0.04693928     0.16000
F919        F  0.42963914  0.34866936  0.00201812    -0.23300
H920        H  0.40291047  0.36619970  0.00231527     0.17900
C921        C  0.37094211  0.51359669  0.08597174    -0.27400
C922        C  0.35182959  0.49677701  0.09469446     0.06200
C923        C  0.33422896  0.47474120  0.08869973     0.25800
C924        C  0.33568616  0.46975412  0.07414624    -0.11900
C925        C  0.35463067  0.48670128  0.06531478    -0.25800
C926        C  0.37242791  0.50867581  0.07142942     0.36600
C927        C  0.34920369  0.50349248  0.10952326     0.06200
F928        F  0.31505489  0.45855273  0.09672134    -0.19600
H929        H  0.32169544  0.45276712  0.06971053     0.16100
F930        F  0.39109850  0.52556967  0.06336599    -0.23300
H931        H  0.38455673  0.53077730  0.09041264     0.17800
C932        C  0.34883130  0.49076820  0.12179892     0.25800
C933        C  0.34703529  0.49823055  0.13572509    -0.11900
C934        C  0.34552718  0.51849283  0.13757167    -0.25900
C935        C  0.34546111  0.53074544  0.12505848     0.36800
C936        C  0.34732990  0.52333464  0.11131452    -0.27500
F937        F  0.35101762  0.47166139  0.12033597    -0.19600
H938        H  0.34735103  0.48834681  0.14489682     0.16000
F939        F  0.34411703  0.55042348  0.12612466    -0.23300
H940        H  0.34742084  0.53324751  0.10196934     0.17900
C941        C  0.04780669  0.40048078  0.95106074    -0.27400
C942        C  0.03486181  0.40482644  0.94085927     0.06200
C943        C  0.04714576  0.41929412  0.92878531     0.25800
C944        C  0.07190890  0.43037905  0.92747154    -0.11900
C945        C  0.08510267  0.42719292  0.93804981    -0.25800
C946        C  0.07269819  0.41143163  0.94965051     0.36600
C947        C  0.00890823  0.39534172  0.94295110     0.06200
F948        F  0.03521451  0.42297866  0.91827270    -0.19600
H949        H  0.08087054  0.44208736  0.91830835     0.16100
F950        F  0.08465595  0.40730611  0.95991562    -0.23300
H951        H  0.03881780  0.38934468  0.96042462     0.17800
C952        C  0.99215971  0.37112475  0.94627808     0.25800
C953        C  0.96759714  0.36235539  0.94676011    -0.11900
C954        C  0.95929514  0.37756956  0.94412012    -0.25900
C955        C  0.97619335  0.40204202  0.94160880     0.36800
C956        C  0.00062646  0.41072119  0.94105887    -0.27500
F957        F  0.99937327  0.35572588  0.94850924    -0.19600
H958        H  0.95502499  0.34353463  0.94898498     0.16000
F959        F  0.96919238  0.41762923  0.93941977    -0.23300
H960        H  0.01317467  0.42959890  0.93896769     0.17900
C961        C  0.21896918  0.44053279  0.97395344    -0.27400
C962        C  0.24194534  0.46078928  0.97643137     0.06200
C963        C  0.24832351  0.48264165  0.96994729     0.25800
C964        C  0.23178047  0.48435063  0.96159024    -0.11900
C965        C  0.20857220  0.46429857  0.95936164    -0.25800
C966        C  0.20235085  0.44222061  0.96553174     0.36600
C967        C  0.25923460  0.45936780  0.98587524     0.06200
F968        F  0.27071483  0.50233972  0.97156810    -0.19600
H969        H  0.23716653  0.50151488  0.95689189     0.16100
F970        F  0.18009977  0.42241419  0.96373509    -0.23300
H971        H  0.21373316  0.42351767  0.97881570     0.17800
C972        C  0.27011292  0.47532871  0.99750974     0.25800
C973        C  0.28806985  0.47559988  0.00553459    -0.11900
C974        C  0.29554295  0.45991317  0.00222145    -0.25900
C975        C  0.28387100  0.44312475  0.99100419     0.36800
C976        C  0.26581216  0.44285803  0.98294841    -0.27500
F977        F  0.26350864  0.49086074  0.00104144    -0.19600
H978        H  0.29652694  0.48854562  0.01418866     0.16000
F979        F  0.29050960  0.42764515  0.98742288    -0.23300
H980        H  0.25757586  0.43034956  0.97406374     0.17900
C981        C  0.41311991  0.03476766  0.95049485    -0.27400
C982        C  0.42026694  0.02191504  0.94218946     0.06200
C983        C  0.44100724  0.03444834  0.93360822     0.25800
C984        C  0.45473114  0.05940836  0.93367398    -0.11900
C985        C  0.44791257  0.07238097  0.94213993    -0.25800
C986        C  0.42669938  0.05985236  0.95039292     0.36600
C987        C  0.40663521  0.99547857  0.94269230     0.06200
F988        F  0.44849891  0.02251366  0.92557598    -0.19600
H989        H  0.47094766  0.06861417  0.92721663     0.16100
F990        F  0.41952042  0.07175134  0.95872358    -0.23300
H991        H  0.39709539  0.02534273  0.95710805     0.17800
C992        C  0.40394193  0.98336041  0.95572973     0.25800
C993        C  0.39343753  0.95853128  0.95573903    -0.11900
C994        C  0.38541163  0.94543505  0.94276756    -0.25900
C995        C  0.38739185  0.95757952  0.92981545     0.36800
C996        C  0.39793422  0.98234917  0.92982847    -0.27500
F997        F  0.41261855  0.99568354  0.96829902    -0.19600
H998        H  0.39220057  0.94965173  0.96583910     0.16000
F999        F  0.37992017  0.94572539  0.91702512    -0.23300
H1000       H  0.39983762  0.99143467  0.91969615     0.17900
C1001       C  0.04564710  0.62917118  0.01457233    -0.27400
C1002       C  0.03581247  0.63123736  0.02755546     0.06200
C1003       C  0.05113676  0.64352344  0.03926880     0.25800
C1004       C  0.07569966  0.65310555  0.03804667    -0.11900
C1005       C  0.08543085  0.65056444  0.02517400    -0.25800
C1006       C  0.07020646  0.63877340  0.01334112     0.36600
C1007       C  0.00952550  0.61957664  0.02900583     0.06200
F1008       F  0.04238002  0.64627784  0.05190634    -0.19600
H1009       H  0.08704949  0.66208618  0.04730848     0.16100
F1010       F  0.07894801  0.63625154  0.00062600    -0.23300
H1011       H  0.03420123  0.61951829  0.00546769     0.17800
C1012       C  0.99607121  0.62196428  0.01817279     0.25800
C1013       C  0.97115239  0.60969068  0.01933717    -0.11900
C1014       C  0.95920642  0.59477490  0.03125947    -0.25900
C1015       C  0.97270406  0.59291474  0.04228793     0.36800
C1016       C  0.99758186  0.60511219  0.04109653    -0.27500
F1017       F  0.00697650  0.63610731  0.00644476    -0.19600
H1018       H  0.96114900  0.61138147  0.01069982     0.16000
F1019       F  0.96190125  0.57899318  0.05411401    -0.23300
H1020       H  0.00747972  0.60270249  0.04948106     0.17900
C1021       C  0.19412180  0.65248692  0.08300186    -0.27400
C1022       C  0.18995910  0.66358280  0.09457744     0.06200
C1023       C  0.17998533  0.67724952  0.09162773     0.25800
C1024       C  0.17377483  0.67915485  0.07743292    -0.11900
C1025       C  0.17754404  0.66765879  0.06590763    -0.25800
C1026       C  0.18795654  0.65438620  0.06884760     0.36600
C1027       C  0.19614658  0.66059874  0.10956221     0.06200
F1028       F  0.17557963  0.68817552  0.10248941    -0.19600
H1029       H  0.16583335  0.68951642  0.07547573     0.16100
F1030       F  0.19191085  0.64291194  0.05811179    -0.23300
H1031       H  0.20223231  0.64226995  0.08493000     0.17800
C1032       C  0.18942195  0.63783607  0.11466593     0.25800
C1033       C  0.19805390  0.63531825  0.12786674    -0.11900
C1034       C  0.21380817  0.65547254  0.13633288    -0.25900
C1035       C  0.21804500  0.67789615  0.13199798     0.36800
C1036       C  0.20974396  0.68046133  0.11862378    -0.27500
F1037       F  0.17461343  0.61792527  0.10678377    -0.19600
H1038       H  0.19223994  0.61740643  0.13121704     0.16000
F1039       F  0.23134774  0.69764398  0.14033611    -0.23300
H1040       H  0.21479269  0.69816811  0.11511108     0.17900
C1041       C  0.17210133  0.60562240  0.98099726    -0.27400
C1042       C  0.15557514  0.58143385  0.98432834     0.06200
C1043       C  0.13929151  0.57573170  0.99579177     0.25800
C1044       C  0.13980338  0.59392385  0.00378794    -0.11900
C1045       C  0.15639997  0.61811568  0.00047346    -0.25800
C1046       C  0.17247045  0.62380252  0.98889481     0.36600
C1047       C  0.15590513  0.56237660  0.97606881     0.06200
F1048       F  0.12258990  0.55258229  0.99910971    -0.19600
H1049       H  0.12708257  0.58904264  0.01255345     0.16100
F1050       F  0.18871519  0.64691026  0.98523889    -0.23300
H1051       H  0.18506320  0.61050085  0.97238043     0.17800
C1052       C  0.15708168  0.56290814  0.96084175     0.25800
C1053       C  0.15809582  0.54519908  0.95326484    -0.11900
C1054       C  0.15777147  0.52653885  0.96068160    -0.25900
C1055       C  0.15646724  0.52594518  0.97589570     0.36800
C1056       C  0.15566200  0.54375346  0.98346559    -0.27500
F1057       F  0.15674541  0.58024885  0.95325893    -0.19600
H1058       H  0.15893310  0.54599369  0.94155225     0.16000
F1059       F  0.15615809  0.50829136  0.98351211    -0.23300
H1060       H  0.15519976  0.54316515  0.99518252     0.17900
C1061       C  0.26024035  0.79046351  0.96429498    -0.27400
C1062       C  0.25692593  0.79564779  0.97850968     0.06200
C1063       C  0.27377249  0.81812654  0.98443998     0.25800
C1064       C  0.29411790  0.83464907  0.97651182    -0.11900
C1065       C  0.29817954  0.82892037  0.96261404    -0.25800
C1066       C  0.28070974  0.80686898  0.95640853     0.36600
C1067       C  0.23783184  0.77650090  0.98770230     0.06200
F1068       F  0.27086972  0.82377523  0.99808834    -0.19600
H1069       H  0.30719129  0.85154236  0.98149294     0.16100
F1070       F  0.28368084  0.80086460  0.94287151    -0.23300
H1071       H  0.24756279  0.77318381  0.95956532     0.17800
C1072       C  0.21362176  0.76362442  0.98353865     0.25800
C1073       C  0.19646301  0.74396721  0.99178488    -0.11900
C1074       C  0.20325691  0.73679164  0.00420944    -0.25900
C1075       C  0.22736339  0.75035898  0.00859685     0.36800
C1076       C  0.24436203  0.76991121  0.00040753    -0.27500
F1077       F  0.20666412  0.76990515  0.97146072    -0.19600
H1078       H  0.17801830  0.73391318  0.98819637     0.16000
F1079       F  0.23479914  0.74429082  0.02054222    -0.23300
H1080       H  0.26294001  0.77944703  0.00373026     0.17900
C1081       C  0.61568485  0.63120711  0.93186202    -0.27400
C1082       C  0.63485835  0.63980077  0.94157212     0.06200
C1083       C  0.64128220  0.66015183  0.94995390     0.25800
C1084       C  0.62816173  0.67111210  0.94884738    -0.11900
C1085       C  0.60840679  0.66184763  0.93946657    -0.25800
C1086       C  0.60247949  0.64187265  0.93088344     0.36600
C1087       C  0.64715692  0.62662360  0.94292998     0.06200
F1088       F  0.65951106  0.66880657  0.95959877    -0.19600
H1089       H  0.63298529  0.68638388  0.95564394     0.16100
F1090       F  0.58383594  0.63251050  0.92151166    -0.23300
H1091       H  0.61071485  0.61589867  0.92505739     0.17800
C1092       C  0.63342894  0.60157927  0.94443954     0.25800
C1093       C  0.64420957  0.58849792  0.94356915    -0.11900
C1094       C  0.66900612  0.59996728  0.94147085    -0.25900
C1095       C  0.68311339  0.62516312  0.94087052     0.36800
C1096       C  0.67218096  0.63836747  0.94151045    -0.27500
F1097       F  0.60940403  0.58964407  0.94662599    -0.19600
H1098       H  0.63297903  0.56918839  0.94450838     0.16000
F1099       F  0.70722371  0.63694231  0.93917585    -0.23300
H1100       H  0.68313490  0.65764979  0.94035760     0.17900
C1101       C  0.47172760  0.59023019  0.96251497    -0.27400
C1102       C  0.47024462  0.59112018  0.97765978     0.06200
C1103       C  0.48738277  0.61215078  0.98492259     0.25800
C1104       C  0.50544800  0.63180004  0.97714053    -0.11900
C1105       C  0.50681395  0.63097043  0.96197636    -0.25800
C1106       C  0.48970508  0.60988914  0.95472667     0.36600
C1107       C  0.45067608  0.57016760  0.98570543     0.06200
F1108       F  0.48636129  0.61394977  0.99950918    -0.19600
H1109       H  0.51838687  0.64774757  0.98301439     0.16100
F1110       F  0.49044736  0.60806402  0.94012828    -0.23300
H1111       H  0.45901987  0.57412454  0.95667974     0.17800
C1112       C  0.42678205  0.55881219  0.98104144     0.25800
C1113       C  0.40849927  0.53896328  0.98848816    -0.11900
C1114       C  0.41350134  0.53000952  0.00080153    -0.25900
C1115       C  0.43737370  0.54137145  0.00554499     0.36800
C1116       C  0.45573738  0.56121568  0.99802601    -0.27500
F1117       F  0.42096604  0.56724720  0.96946526    -0.19600
H1118       H  0.39029242  0.53068574  0.98463658     0.16000
F1119       F  0.44303773  0.53331323  0.01738062    -0.23300
H1120       H  0.47400723  0.56943743  0.00174259     0.17900
C1121       C  0.63050931  0.03590083  0.05180609    -0.27400
C1122       C  0.63691730  0.02445198  0.04171082     0.06200
C1123       C  0.65567253  0.03850314  0.03191244     0.25800
C1124       C  0.66757948  0.06351507  0.03214812    -0.11900
C1125       C  0.66088822  0.07500209  0.04205838    -0.25800
C1126       C  0.64238452  0.06090114  0.05205261     0.36600
C1127       C  0.62324283  0.99789267  0.04095583     0.06200
F1128       F  0.66168321  0.02797790  0.02163953    -0.19600
H1129       H  0.68151824  0.07386243  0.02422943     0.16100
F1130       F  0.63550931  0.07119705  0.06196071    -0.23300
H1131       H  0.61612915  0.02540536  0.05945471     0.17800
C1132       C  0.63488386  0.98539761  0.04180833     0.25800
C1133       C  0.62191162  0.96046000  0.04018614    -0.11900
C1134       C  0.59709486  0.94750497  0.03771460    -0.25900
C1135       C  0.58536721  0.96001634  0.03725437     0.36800
C1136       C  0.59835648  0.98491987  0.03890900    -0.27500
F1137       F  0.65878428  0.99731523  0.04432455    -0.19600
H1138       H  0.63133826  0.95129353  0.04077620     0.16000
F1139       F  0.56143011  0.94833027  0.03488317    -0.23300
H1140       H  0.58904262  0.99419997  0.03821830     0.17900
C1141       C  0.55139663  0.83814240  0.09653020    -0.27400
C1142       C  0.52914803  0.83216603  0.10225740     0.06200
C1143       C  0.51378520  0.83554259  0.09358475     0.25800
C1144       C  0.52030484  0.84403628  0.07939405    -0.11900
C1145       C  0.54238444  0.84969549  0.07357761    -0.25800
C1146       C  0.55806737  0.84695871  0.08236857     0.36600
C1147       C  0.52144415  0.82134607  0.11694364     0.06200
F1148       F  0.49205082  0.82980022  0.09863496    -0.19600
H1149       H  0.50795438  0.84610770  0.07290526     0.16100
F1150       F  0.57953287  0.85213501  0.07717903    -0.23300
H1151       H  0.56359359  0.83586138  0.10303144     0.17800
C1152       C  0.52158280  0.80089151  0.12069680     0.25800
C1153       C  0.51171999  0.78913550  0.13386406    -0.11900
C1154       C  0.50124146  0.79734601  0.14362809    -0.25900
C1155       C  0.50320979  0.81916464  0.14033122     0.36800
C1156       C  0.51279847  0.83071247  0.12707463    -0.27500
F1157       F  0.53012334  0.79146449  0.11129339    -0.19600
H1158       H  0.51217141  0.77343383  0.13606061     0.16000
F1159       F  0.49458855  0.82867050  0.14961827    -0.23300
H1160       H  0.51307212  0.84681824  0.12459487     0.17900
C1161       C  0.60146751  0.82861959  0.98862950    -0.27400
C1162       C  0.59031995  0.80419903  0.99203339     0.06200
C1163       C  0.57619382  0.79541049  0.00462707     0.25800
C1164       C  0.57204491  0.81036187  0.01307552    -0.11900
C1165       C  0.58203293  0.83446960  0.00926729    -0.25800
C1166       C  0.59756732  0.84372019  0.99721190     0.36600
C1167       C  0.59092010  0.78726388  0.98171556     0.06200
F1168       F  0.56499759  0.77190843  0.00821667    -0.19600
H1169       H  0.56022177  0.80276976  0.02234981     0.16100
F1170       F  0.60810176  0.86701939  0.99330017    -0.23300
H1171       H  0.61258984  0.83580884  0.97903972     0.17800
C1172       C  0.58186611  0.78470812  0.96762597     0.25800
C1173       C  0.57828700  0.76592487  0.95873993    -0.11900
C1174       C  0.58417745  0.74964715  0.96356864    -0.25900
C1175       C  0.59458560  0.75304597  0.97734507     0.36800
C1176       C  0.59770414  0.77156664  0.98635850    -0.27500
F1177       F  0.57502886  0.79945833  0.96278795    -0.19600
H1178       H  0.57036197  0.76377049  0.94816539     0.16000
F1179       F  0.60035542  0.73760785  0.98246760    -0.23300
H1180       H  0.60470276  0.77319918  0.99716718     0.17900
C1181       C  0.45677277  0.88399180  0.96934340    -0.27400
C1182       C  0.45016552  0.86318925  0.97723966     0.06200
C1183       C  0.42604667  0.84401085  0.97704594     0.25800
C1184       C  0.40898101  0.84585580  0.96929230    -0.11900
C1185       C  0.41554067  0.86680177  0.96156696    -0.25800
C1186       C  0.43974261  0.88583030  0.96156477     0.36600
C1187       C  0.46833350  0.86216662  0.98610742     0.06200
F1188       F  0.41897703  0.82339816  0.98426474    -0.19600
H1189       H  0.39052444  0.83089729  0.96944168     0.16100
F1190       F  0.44694200  0.90648913  0.95436338    -0.23300
H1191       H  0.47512335  0.89916056  0.96949335     0.17800
C1192       C  0.49088482  0.86918745  0.98031388     0.25800
C1193       C  0.50849674  0.87000464  0.98910507    -0.11900
C1194       C  0.50396037  0.86363149  0.00380930    -0.25900
C1195       C  0.48113828  0.85589592  0.00948928     0.36800
C1196       C  0.46362219  0.85528354  0.00072581    -0.27500
F1197       F  0.49586870  0.87516880  0.96612240    -0.19600
H1198       H  0.52581077  0.87584637  0.98441360     0.16000
F1199       F  0.47593094  0.84969070  0.02363830    -0.23300
H1200       H  0.44654068  0.85009556  0.00551176     0.17900
C1201       C  0.85762127  0.52302169  0.09665377    -0.27400
C1202       C  0.84953373  0.53702687  0.10242740     0.06200
C1203       C  0.85066650  0.55512714  0.09385715     0.25800
C1204       C  0.85894971  0.55848374  0.07957145    -0.11900
C1205       C  0.86597973  0.54370432  0.07358550    -0.25800
C1206       C  0.86569366  0.52621362  0.08236017     0.36600
C1207       C  0.83818020  0.53115231  0.11692116     0.06200
F1208       F  0.84349428  0.56933942  0.09924915    -0.19600
H1209       H  0.85922681  0.57220635  0.07306397     0.16100
F1210       F  0.87300309  0.51202610  0.07711949    -0.23300
H1211       H  0.85685813  0.50896627  0.10307717     0.17800
C1212       C  0.81460555  0.52536204  0.11858505     0.25800
C1213       C  0.80262736  0.51655354  0.13174536    -0.11900
C1214       C  0.81369941  0.51287956  0.14359839    -0.25900
C1215       C  0.83778371  0.51969026  0.14197698     0.36800
C1216       C  0.84980069  0.52869181  0.12879541    -0.27500
F1217       F  0.80239556  0.52636297  0.10712606    -0.19600
H1218       H  0.78423404  0.51142645  0.13197396     0.16000
F1219       F  0.84926312  0.51620164  0.15287979    -0.23300
H1220       H  0.86795977  0.53292498  0.12768314     0.17900
C1221       C  0.81262339  0.51976007  0.25410118    -0.27400
C1222       C  0.81010992  0.50203543  0.24456809     0.06200
C1223       C  0.80480552  0.48000099  0.25019530     0.25800
C1224       C  0.80143196  0.47560207  0.26506231    -0.11900
C1225       C  0.80349824  0.49311758  0.27458213    -0.25800
C1226       C  0.80943645  0.51540997  0.26902519     0.36600
C1227       C  0.81054162  0.50542768  0.22871916     0.06200
F1228       F  0.80152115  0.46223683  0.24122969    -0.19600
H1229       H  0.79668834  0.45825549  0.26913695     0.16100
F1230       F  0.81065228  0.53236600  0.27788531    -0.23300
H1231       H  0.81641671  0.53672481  0.24992034     0.17800
C1232       C  0.79348032  0.50889124  0.22223222     0.25800
C1233       C  0.79096975  0.50777429  0.20720124    -0.11900
C1234       C  0.80565586  0.50361896  0.19845008    -0.25900
C1235       C  0.82373298  0.50168005  0.20480161     0.36800
C1236       C  0.82606899  0.50246783  0.21988241    -0.27500
F1237       F  0.77798401  0.51141953  0.23046994    -0.19600
H1238       H  0.77674085  0.50894144  0.20240806     0.16000
F1239       F  0.83789456  0.49729353  0.19650006    -0.23300
H1240       H  0.83929696  0.49975337  0.22471022     0.17900
C1241       C  0.69931238  0.19573603  0.13390445    -0.27400
C1242       C  0.71420870  0.20735241  0.12195238     0.06200
C1243       C  0.73168250  0.23192064  0.12288732     0.25800
C1244       C  0.73339251  0.24484384  0.13531454    -0.11900
C1245       C  0.71755081  0.23357168  0.14710845    -0.25800
C1246       C  0.70101237  0.20855762  0.14635440     0.36600
C1247       C  0.70961407  0.19444217  0.10803786     0.06200
F1248       F  0.74593028  0.24384078  0.11134779    -0.19600
H1249       H  0.74635898  0.26382499  0.13505988     0.16100
F1250       F  0.68530929  0.19669569  0.15733352    -0.23300
H1251       H  0.68570549  0.17678930  0.13338140     0.17800
C1252       C  0.72775522  0.19358341  0.10070069     0.25800
C1253       C  0.72343839  0.18307177  0.08694819    -0.11900
C1254       C  0.70101719  0.17338160  0.08029079    -0.25900
C1255       C  0.68263094  0.17348929  0.08794244     0.36800
C1256       C  0.68695407  0.18388063  0.10165716    -0.27500
F1257       F  0.74961254  0.20294340  0.10683314    -0.19600
H1258       H  0.73779656  0.18300359  0.08137196     0.16000
F1259       F  0.66048880  0.16382190  0.08213980    -0.23300
H1260       H  0.67272481  0.18431557  0.10715306     0.17900
C1261       C  0.75438929  0.34942893  0.18552979    -0.27400
C1262       C  0.76005551  0.36260585  0.17268047     0.06200
C1263       C  0.75698884  0.35109208  0.15938400     0.25800
C1264       C  0.74783813  0.32657735  0.15896114    -0.11900
C1265       C  0.74152063  0.31302305  0.17178951    -0.25800
C1266       C  0.74520950  0.32487682  0.18514755     0.36600
C1267       C  0.76762936  0.38797912  0.17304570     0.06200
F1268       F  0.76157406  0.36331532  0.14676550    -0.19600
H1269       H  0.74464198  0.31803400  0.14849567     0.16100
F1270       F  0.73983933  0.31295901  0.19788488    -0.23300
H1271       H  0.75672088  0.35813918  0.19587134     0.17800
C1272       C  0.75184244  0.39440962  0.17806202     0.25800
C1273       C  0.75807017  0.41810281  0.17698279    -0.11900
C1274       C  0.78030573  0.43584936  0.17111559    -0.25900
C1275       C  0.79654463  0.42949703  0.16672831     0.36800
C1276       C  0.79007668  0.40568130  0.16754606    -0.27500
F1277       F  0.72994641  0.37755237  0.18336049    -0.19600
H1278       H  0.74505762  0.42231072  0.18027392     0.16000
F1279       F  0.81871888  0.44625803  0.16177248    -0.23300
H1280       H  0.80252758  0.40097445  0.16380379     0.17900
C1281       C  0.72627051  0.33761259  0.31769411    -0.27400
C1282       C  0.74156211  0.34946259  0.30589740     0.06200
C1283       C  0.74507529  0.33623515  0.29546723     0.25800
C1284       C  0.73289674  0.31131730  0.29668208    -0.11900
C1285       C  0.71753846  0.29946783  0.30844970    -0.25800
C1286       C  0.71439123  0.31276368  0.31903002     0.36600
C1287       C  0.75257594  0.37543627  0.30420185     0.06200
F1288       F  0.75954297  0.34732691  0.28387701    -0.19600
H1289       H  0.73522429  0.30119124  0.28837028     0.16100
F1290       F  0.69894531  0.30161597  0.33022406    -0.23300
H1291       H  0.72325496  0.34763491  0.32573086     0.17800
C1292       C  0.73823124  0.38435696  0.30072536     0.25800
C1293       C  0.74809016  0.40899164  0.30041578    -0.11900
C1294       C  0.77237227  0.42510814  0.30366824    -0.25900
C1295       C  0.78697547  0.41615945  0.30657295     0.36800
C1296       C  0.77708052  0.39142604  0.30679560    -0.27500
F1297       F  0.71456770  0.36916192  0.29789764    -0.19600
H1298       H  0.73645253  0.41540483  0.29820171     0.16000
F1299       F  0.81071122  0.43127928  0.30921086    -0.23300
H1300       H  0.78835656  0.38471484  0.30937000     0.17900
C1301       C  0.68038734  0.22849601  0.25237393    -0.27400
C1302       C  0.70301770  0.23498527  0.24708027     0.06200
C1303       C  0.72162062  0.24145787  0.25705185     0.25800
C1304       C  0.71773751  0.24226100  0.27191586    -0.11900
C1305       C  0.69531018  0.23657067  0.27701467    -0.25800
C1306       C  0.67651571  0.22909875  0.26717772     0.36600
C1307       C  0.70729923  0.23684213  0.23117748     0.06200
F1308       F  0.74355346  0.24717663  0.25242829    -0.19600
H1309       H  0.73238770  0.24796744  0.27940622     0.16100
F1310       F  0.65432779  0.22227701  0.27190187    -0.23300
H1311       H  0.66580075  0.22367357  0.24499745     0.17800
C1312       C  0.69053148  0.21904806  0.22166936     0.25800
C1313       C  0.69273532  0.22298784  0.20669911    -0.11900
C1314       C  0.71181001  0.24449393  0.20101376    -0.25900
C1315       C  0.72957810  0.26133235  0.21033323     0.36800
C1316       C  0.72717061  0.25769639  0.22529426    -0.27500
F1317       F  0.67176310  0.19809995  0.22686449    -0.19600
H1318       H  0.67911254  0.20963652  0.19957448     0.16000
F1319       F  0.74922224  0.28133059  0.20495378    -0.23300
H1320       H  0.74039203  0.27167224  0.23229206     0.17900
C1321       C  0.51145704  0.30720028  0.12014224    -0.27400
C1322       C  0.51605788  0.32938371  0.11542183     0.06200
C1323       C  0.52753914  0.34907933  0.12480763     0.25800
C1324       C  0.53633881  0.34709991  0.13807088    -0.11900
C1325       C  0.53487947  0.32578737  0.14197406    -0.25800
C1326       C  0.52050849  0.30525182  0.13336606     0.36600
C1327       C  0.51081790  0.33233386  0.10030520     0.06200
F1328       F  0.53100617  0.37046973  0.12091274    -0.19600
H1329       H  0.54547548  0.36275642  0.14494938     0.16100
F1330       F  0.51502898  0.28327692  0.13760197    -0.23300
H1331       H  0.50176505  0.29157062  0.11327276     0.17800
C1332       C  0.52949551  0.34882101  0.09119092     0.25800
C1333       C  0.52502853  0.35077782  0.07668563    -0.11900
C1334       C  0.50186968  0.33639946  0.07093967    -0.25900
C1335       C  0.48310180  0.31994666  0.08009269     0.36800
C1336       C  0.48764535  0.31785974  0.09464216    -0.27500
F1337       F  0.55226997  0.36248593  0.09620370    -0.19600
H1338       H  0.53983643  0.36354381  0.06991015     0.16000
F1339       F  0.46045709  0.30577869  0.07500649    -0.23300
H1340       H  0.47308763  0.30495129  0.10151072     0.17900
C1341       C  0.69802555  0.43967583  0.18486216    -0.27400
C1342       C  0.68499016  0.42990037  0.17208145     0.06200
C1343       C  0.69660243  0.43761145  0.15866840     0.25800
C1344       C  0.72122372  0.45410700  0.15806708    -0.11900
C1345       C  0.73468352  0.46333404  0.17084164    -0.25800
C1346       C  0.72272262  0.45645981  0.18428123     0.36600
C1347       C  0.65967476  0.41030727  0.17263447     0.06200
F1348       F  0.68433608  0.42807224  0.14617771    -0.19600
H1349       H  0.72988775  0.45856633  0.14756907     0.16100
F1350       F  0.73484261  0.46565582  0.19683712    -0.23300
H1351       H  0.68912556  0.43390781  0.19527344     0.17800
C1352       C  0.65344504  0.38700351  0.17599276     0.25800
C1353       C  0.62966036  0.36788457  0.17487915    -0.11900
C1354       C  0.61181652  0.37178117  0.17037507    -0.25900
C1355       C  0.61806700  0.39536141  0.16751067     0.36800
C1356       C  0.64188908  0.41441982  0.16853509    -0.27500
F1357       F  0.67058114  0.38264607  0.17962633    -0.19600
H1358       H  0.62542141  0.34992987  0.17693714     0.16000
F1359       F  0.60121756  0.40001960  0.16369059    -0.23300
H1360       H  0.64656428  0.43236444  0.16590245     0.17900
C1361       C  0.63770901  0.26690983  0.18158812    -0.27400
C1362       C  0.62841645  0.26826853  0.16822534     0.06200
C1363       C  0.63664804  0.26324928  0.15551633     0.25800
C1364       C  0.65504011  0.25894836  0.15609707    -0.11900
C1365       C  0.66519386  0.25862451  0.16939245    -0.25800
C1366       C  0.65562814  0.26178420  0.18222083     0.36600
C1367       C  0.61197120  0.27705611  0.16740631     0.06200
F1368       F  0.62720625  0.26291940  0.14243310    -0.19600
H1369       H  0.66180055  0.25669093  0.14595826     0.16100
F1370       F  0.66336383  0.25983847  0.19540463    -0.23300
H1371       H  0.63167916  0.27059683  0.19156891     0.17800
C1372       C  0.59260107  0.26911535  0.17708990     0.25800
C1373       C  0.57854129  0.27906497  0.17660654    -0.11900
C1374       C  0.58324056  0.29656115  0.16628025    -0.25900
C1375       C  0.60221785  0.30418962  0.15648158     0.36800
C1376       C  0.61653012  0.29470333  0.15714616    -0.27500
F1377       F  0.58714019  0.25166513  0.18690938    -0.19600
H1378       H  0.56398759  0.27312921  0.18426651     0.16000
F1379       F  0.60751273  0.32156794  0.14663149    -0.23300
H1380       H  0.63167462  0.30171008  0.14984129     0.17900
C1381       C  0.69749021  0.44033998  0.28937091    -0.27400
C1382       C  0.68391202  0.43329115  0.30219044     0.06200
C1383       C  0.69572985  0.44222886  0.31547236     0.25800
C1384       C  0.72066300  0.45581350  0.31601296    -0.11900
C1385       C  0.73441790  0.46141050  0.30329178    -0.25800
C1386       C  0.72251875  0.45459208  0.28987103     0.36600
C1387       C  0.65791330  0.41477112  0.30189622     0.06200
F1388       F  0.68315621  0.43703390  0.32803024    -0.19600
H1389       H  0.72904946  0.46074251  0.32654514     0.16100
F1390       F  0.73495505  0.46130324  0.27722977    -0.23300
H1391       H  0.68880321  0.43393812  0.27898375     0.17800
C1392       C  0.64231941  0.41582131  0.29204851     0.25800
C1393       C  0.61796183  0.39760826  0.29187217    -0.11900
C1394       C  0.60894494  0.37847069  0.30162880    -0.25900
C1395       C  0.62443414  0.37736266  0.31140912     0.36800
C1396       C  0.64870755  0.39519468  0.31140904    -0.27500
F1397       F  0.65047552  0.43468389  0.28290226    -0.19600
H1398       H  0.60606212  0.39864943  0.28434735     0.16000
F1399       F  0.61607111  0.35879741  0.32083370    -0.23300
H1400       H  0.66040784  0.39358636  0.31880889     0.17900
C1401       C  0.61140874  0.25419434  0.31295698    -0.27400
C1402       C  0.60873422  0.26161454  0.29929797     0.06200
C1403       C  0.62127018  0.26030096  0.28746197     0.25800
C1404       C  0.63721336  0.25291786  0.28943331    -0.11900
C1405       C  0.64116558  0.24683010  0.30325230    -0.25800
C1406       C  0.62758125  0.24706724  0.31501726     0.36600
C1407       C  0.59616813  0.27436842  0.29800950     0.06200
F1408       F  0.61886370  0.26719356  0.27408789    -0.19600
H1409       H  0.64714202  0.25296555  0.28013474     0.16100
F1410       F  0.63133673  0.24264806  0.32875240    -0.23300
H1411       H  0.60223630  0.25558420  0.32226482     0.17800
C1412       C  0.57216347  0.26374382  0.30225582     0.25800
C1413       C  0.56179513  0.27738826  0.30267614    -0.11900
C1414       C  0.57525323  0.30185359  0.29897296    -0.25900
C1415       C  0.59906226  0.31210438  0.29419967     0.36800
C1416       C  0.60927741  0.29843208  0.29372697    -0.27500
F1417       F  0.55889492  0.24030989  0.30612502    -0.19600
H1418       H  0.54333131  0.26891481  0.30614021     0.16000
F1419       F  0.61318509  0.33568174  0.29088012    -0.23300
H1420       H  0.62793244  0.30700055  0.29063491     0.17900
C1421       C  0.52080643  0.30887090  0.25117269    -0.27400
C1422       C  0.53487332  0.32861301  0.24202748     0.06200
C1423       C  0.55057762  0.35122256  0.24827233     0.25800
C1424       C  0.55335642  0.35356232  0.26329440    -0.11900
C1425       C  0.54021531  0.33360013  0.27232417    -0.25800
C1426       C  0.52346027  0.31131437  0.26622213     0.36600
C1427       C  0.53536006  0.32519814  0.22615831     0.06200
F1428       F  0.56464565  0.37068853  0.23983969    -0.19600
H1429       H  0.56664163  0.37076178  0.26786663     0.16100
F1430       F  0.51109517  0.29160144  0.27473608    -0.23300
H1431       H  0.50852074  0.29133561  0.24661847     0.17800
C1432       C  0.53983791  0.30809689  0.22073713     0.25800
C1433       C  0.54390594  0.30728436  0.20595763    -0.11900
C1434       C  0.54317611  0.32314606  0.19630486    -0.25900
C1435       C  0.53773554  0.33958209  0.20155615     0.36800
C1436       C  0.53386582  0.34056945  0.21637672    -0.27500
F1437       F  0.54178853  0.29316215  0.22981979    -0.19600
H1438       H  0.54824403  0.29463471  0.20206936     0.16000
F1439       F  0.53773938  0.35570244  0.19251035    -0.23300
H1440       H  0.53043705  0.35385591  0.22028945     0.17900
C1441       C  0.22338558  0.49890122  0.84551546    -0.27400
C1442       C  0.20501635  0.50178178  0.85031498     0.06200
C1443       C  0.19700802  0.51286124  0.84109901     0.25800
C1444       C  0.20894984  0.52313119  0.82805755    -0.11900
C1445       C  0.22965114  0.52333126  0.82412940    -0.25800
C1446       C  0.23534510  0.50913892  0.83245291     0.36600
C1447       C  0.19630068  0.49578879  0.86547142     0.06200
F1448       F  0.17817006  0.51451046  0.84497210    -0.19600
H1449       H  0.20274687  0.53215499  0.82140804     0.16100
F1450       F  0.25209918  0.50467979  0.82806275    -0.23300
H1451       H  0.22922823  0.48959366  0.85220654     0.17800
C1452       C  0.18737294  0.47291658  0.87135507     0.25800
C1453       C  0.18053428  0.46834097  0.88597459    -0.11900
C1454       C  0.18288923  0.48659083  0.89500458    -0.25900
C1455       C  0.19213241  0.50954329  0.88907033     0.36800
C1456       C  0.19855063  0.51393728  0.87446894    -0.27500
F1457       F  0.18501547  0.45498283  0.86293903    -0.19600
H1458       H  0.17345318  0.45053070  0.89024068     0.16000
F1459       F  0.19503730  0.52786717  0.89733193    -0.23300
H1460       H  0.20584427  0.53180672  0.87022141     0.17900
C1461       C  0.23571083  0.51289821  0.74888825    -0.27400
C1462       C  0.23724892  0.53055572  0.73971623     0.06200
C1463       C  0.24104880  0.55176138  0.74578893     0.25800
C1464       C  0.24427653  0.55561189  0.76072997    -0.11900
C1465       C  0.24343651  0.53827382  0.76989312    -0.25800
C1466       C  0.23854233  0.51658169  0.76389061     0.36600
C1467       C  0.23837109  0.52843120  0.72381009     0.06200
F1468       F  0.24299540  0.56930227  0.73717192    -0.19600
H1469       H  0.24791514  0.57240508  0.76513417     0.16100
F1470       F  0.23804932  0.49964136  0.77238614    -0.23300
H1471       H  0.23313940  0.49660593  0.74434889     0.17800
C1472       C  0.25927423  0.53179771  0.71751872     0.25800
C1473       C  0.26204854  0.53303883  0.70248814    -0.11900
C1474       C  0.24393806  0.53062644  0.69342516    -0.25900
C1475       C  0.22250814  0.52619091  0.69965320     0.36800
C1476       C  0.21985002  0.52529203  0.71478945    -0.27500
F1477       F  0.27766118  0.53545273  0.72597424    -0.19600
H1478       H  0.27885873  0.53695364  0.69789815     0.16000
F1479       F  0.20497621  0.52451221  0.69118407    -0.23300
H1480       H  0.20371654  0.52293217  0.71948623     0.17900
C1481       C  0.40186339  0.62324141  0.65111053    -0.27400
C1482       C  0.39054742  0.61480413  0.66456120     0.06200
C1483       C  0.40420378  0.62365995  0.67724173     0.25800
C1484       C  0.42863274  0.64143448  0.67645766    -0.11900
C1485       C  0.43992662  0.65072650  0.66303219    -0.25800
C1486       C  0.42625130  0.64116111  0.65029346     0.36600
C1487       C  0.36411795  0.59937230  0.66530960     0.06200
F1488       F  0.39370620  0.61559099  0.69039901    -0.19600
H1489       H  0.43854205  0.64827953  0.68641739     0.16100
F1490       F  0.43583475  0.65032086  0.63708973    -0.23300
H1491       H  0.39146659  0.61690990  0.64124541     0.17800
C1492       C  0.35104605  0.60886928  0.67055640     0.25800
C1493       C  0.32605226  0.59522233  0.67028457    -0.11900
C1494       C  0.31347230  0.57168072  0.66490208    -0.25900
C1495       C  0.32666398  0.56195059  0.65995068     0.36800
C1496       C  0.35179092  0.57583796  0.66003038    -0.27500
F1497       F  0.36254514  0.63182103  0.67533665    -0.19600
H1498       H  0.31664009  0.60356553  0.67379793     0.16000
F1499       F  0.31538820  0.53904407  0.65512982    -0.23300
H1500       H  0.36165669  0.56827313  0.65594296     0.17900
C1501       C  0.50734375  0.69593172  0.85236113    -0.27400
C1502       C  0.53199145  0.70574173  0.85379159     0.06200
C1503       C  0.54627073  0.71347882  0.84116638     0.25800
C1504       C  0.53590866  0.71120742  0.82748251    -0.11900
C1505       C  0.51111399  0.70148439  0.82610374    -0.25800
C1506       C  0.49715049  0.69431958  0.83889776     0.36600
C1507       C  0.54205950  0.70735481  0.86853841     0.06200
F1508       F  0.57034772  0.72403140  0.84208389    -0.19600
H1509       H  0.54758699  0.71781523  0.81815092     0.16100
F1510       F  0.47341141  0.68593404  0.83845800    -0.23300
H1511       H  0.49575355  0.68946062  0.86178168     0.17800
C1512       C  0.53461584  0.71508678  0.88047521     0.25800
C1513       C  0.54086347  0.71294672  0.89458893    -0.11900
C1514       C  0.55515591  0.70363433  0.89719796    -0.25900
C1515       C  0.56396384  0.69736351  0.88526610     0.36800
C1516       C  0.55731614  0.69906510  0.87109633    -0.27500
F1517       F  0.52089890  0.72437493  0.87852988    -0.19600
H1518       H  0.53417644  0.71827504  0.90355907     0.16000
F1519       F  0.57767434  0.68810878  0.88732370    -0.23300
H1520       H  0.56317597  0.69279825  0.86218348     0.17900
C1521       C  0.35169060  0.59481819  0.81024856    -0.27400
C1522       C  0.36224545  0.60069537  0.79647961     0.06200
C1523       C  0.34761361  0.59234253  0.78418165     0.25800
C1524       C  0.32268203  0.57870564  0.78567254    -0.11900
C1525       C  0.31190841  0.57361823  0.79944109    -0.25800
C1526       C  0.32676802  0.58163607  0.81178963     0.36600
C1527       C  0.38817231  0.61844843  0.79510642     0.06200
F1528       F  0.35747749  0.59814232  0.77074227    -0.19600
H1529       H  0.31179064  0.57263684  0.77600140     0.16100
F1530       F  0.31748070  0.57847897  0.82531745    -0.23300
H1531       H  0.36280784  0.60168123  0.81981936     0.17800
C1532       C  0.39613676  0.64219025  0.79165937     0.25800
C1533       C  0.42051147  0.65981994  0.79183703    -0.11900
C1534       C  0.43748653  0.65414305  0.79540119    -0.25900
C1535       C  0.42953683  0.63005796  0.79819567     0.36800
C1536       C  0.40497140  0.61238254  0.79819021    -0.27500
F1537       F  0.38017982  0.64852204  0.78884941    -0.19600
H1538       H  0.42590503  0.67814487  0.78985197     0.16000
F1539       F  0.44542881  0.62364469  0.80098372    -0.23300
H1540       H  0.39901646  0.59405255  0.80077866     0.17900
C1541       C  0.51317919  0.72375648  0.74638864    -0.27400
C1542       C  0.51432436  0.70510152  0.74010934     0.06200
C1543       C  0.51438866  0.68810543  0.74920541     0.25800
C1544       C  0.51149405  0.68881919  0.76420655    -0.11900
C1545       C  0.50851066  0.70645153  0.77029741    -0.25800
C1546       C  0.51020328  0.72439202  0.76134599     0.36600
C1547       C  0.51260992  0.70214063  0.72413117     0.06200
F1548       F  0.51637644  0.67036065  0.74352273    -0.19600
H1549       H  0.51024268  0.67485120  0.77097076     0.16100
F1550       F  0.50820629  0.74210601  0.76703570    -0.23300
H1551       H  0.51323586  0.73710578  0.73961026     0.17800
C1552       C  0.49331949  0.68119640  0.71794621     0.25800
C1553       C  0.48963842  0.67965847  0.70299405    -0.11900
C1554       C  0.50514822  0.69878343  0.69390180    -0.25900
C1555       C  0.52496840  0.71942763  0.69995784     0.36800
C1556       C  0.52851828  0.72113304  0.71498306    -0.27500
F1557       F  0.47719680  0.66273687  0.72643708    -0.19600
H1558       H  0.47443359  0.66356975  0.69851742     0.16000
F1559       F  0.54010119  0.73839365  0.69145272    -0.23300
H1560       H  0.54334297  0.73750385  0.71953453     0.17900
C1561       C  0.40625681  0.74423108  0.67700219    -0.27400
C1562       C  0.42826109  0.75916377  0.67004270     0.06200
C1563       C  0.43290374  0.78034286  0.66350188     0.25800
C1564       C  0.41553277  0.78617947  0.66373293    -0.11900
C1565       C  0.39283843  0.77062146  0.67004147    -0.25800
C1566       C  0.38859226  0.74961527  0.67689717     0.36600
C1567       C  0.44496616  0.75101694  0.66838345     0.06200
F1568       F  0.45407420  0.79515782  0.65666762    -0.19600
H1569       H  0.41979027  0.80273082  0.65865910     0.16100
F1570       F  0.36697286  0.73318711  0.68262974    -0.23300
H1571       H  0.40221167  0.72756598  0.68184772     0.17800
C1572       C  0.45314347  0.74468697  0.68049346     0.25800
C1573       C  0.46603022  0.73372483  0.67865372    -0.11900
C1574       C  0.47067542  0.72856578  0.66473722    -0.25900
C1575       C  0.46308133  0.73563698  0.65260187     0.36800
C1576       C  0.45053016  0.74692176  0.65447314    -0.27500
F1577       F  0.44823349  0.74867585  0.69408687    -0.19600
H1578       H  0.47200134  0.72885645  0.68815869     0.16000
F1579       F  0.46615998  0.73017100  0.63894822    -0.23300
H1580       H  0.44395337  0.75126723  0.64502207     0.17900
C1581       C  0.27727671  0.63337274  0.68034176    -0.27400
C1582       C  0.28271397  0.64719661  0.66771887     0.06200
C1583       C  0.27849210  0.63604793  0.65416262     0.25800
C1584       C  0.27057966  0.61196325  0.65325673    -0.11900
C1585       C  0.26619172  0.59825196  0.66582636    -0.25800
C1586       C  0.26889995  0.60898872  0.67943037     0.36600
C1587       C  0.29465412  0.67348539  0.66851853     0.06200
F1588       F  0.28261122  0.64863439  0.64173303    -0.19600
H1589       H  0.26885797  0.60436114  0.64261346     0.16100
F1590       F  0.26351120  0.59603795  0.69180706    -0.23300
H1591       H  0.28028436  0.64162606  0.69089743     0.17800
C1592       C  0.28551098  0.68437957  0.67707769     0.25800
C1593       C  0.29710257  0.70937379  0.67725196    -0.11900
C1594       C  0.31763178  0.72351826  0.66877916    -0.25900
C1595       C  0.32673695  0.71264900  0.66028320     0.36800
C1596       C  0.31552870  0.68790283  0.66032606    -0.27500
F1597       F  0.26508047  0.67087785  0.68486785    -0.19600
H1598       H  0.28993057  0.71766290  0.68379795     0.16000
F1599       F  0.34655187  0.72603212  0.65195117    -0.23300
H1600       H  0.32312987  0.67993195  0.65386515     0.17900
C1601       C  0.36334026  0.83678965  0.84465340    -0.27400
C1602       C  0.34469236  0.82644941  0.85487129     0.06200
C1603       C  0.32301475  0.80541203  0.85114772     0.25800
C1604       C  0.32078256  0.79400462  0.83795255    -0.11900
C1605       C  0.34023642  0.80311337  0.82815527    -0.25800
C1606       C  0.36113686  0.82544093  0.83143612     0.36600
C1607       C  0.34859610  0.83658914  0.86971549     0.06200
F1608       F  0.30441294  0.79495790  0.86064866    -0.19600
H1609       H  0.30386563  0.77767435  0.83595512     0.16100
F1610       F  0.38006235  0.83568476  0.82217774    -0.23300
H1611       H  0.38000364  0.85337030  0.84711958     0.17800
C1612       C  0.36846935  0.84091819  0.87783942     0.25800
C1613       C  0.37156591  0.84922090  0.89207230    -0.11900
C1614       C  0.35493586  0.85334803  0.89857106    -0.25900
C1615       C  0.33518671  0.84936131  0.89038964     0.36800
C1616       C  0.33208414  0.84101573  0.87611384    -0.27500
F1617       F  0.38443682  0.83618829  0.87221643    -0.19600
H1618       H  0.38685617  0.85203387  0.89810586     0.16000
F1619       F  0.31870654  0.85321938  0.89619064    -0.23300
H1620       H  0.31672036  0.83794216  0.87004892     0.17900
C1621       C  0.44008239  0.74129299  0.78740886    -0.27400
C1622       C  0.43212384  0.74494305  0.80066155     0.06200
C1623       C  0.43940214  0.73968478  0.81355919     0.25800
C1624       C  0.45425479  0.73077471  0.81321058    -0.11900
C1625       C  0.46256491  0.72716891  0.79998854    -0.25800
C1626       C  0.45531422  0.73268748  0.78701924     0.36600
C1627       C  0.41502367  0.75276060  0.80108439     0.06200
F1628       F  0.43121395  0.74212398  0.82651311    -0.19600
H1629       H  0.45847231  0.72590519  0.82340466     0.16100
F1630       F  0.46292834  0.73003624  0.77394406    -0.23300
H1631       H  0.43447616  0.74514522  0.77734330     0.17800
C1632       C  0.42072618  0.77395038  0.80818115     0.25800
C1633       C  0.40373599  0.78027140  0.80926880    -0.11900
C1634       C  0.38060104  0.76535502  0.80354087    -0.25900
C1635       C  0.37492585  0.74387743  0.79664421     0.36800
C1636       C  0.39212566  0.73796263  0.79524564    -0.27500
F1637       F  0.44277321  0.78855670  0.81400093    -0.19600
H1638       H  0.40877743  0.79694429  0.81452746     0.16000
F1639       F  0.35247351  0.72779513  0.79189974    -0.23300
H1640       H  0.38726116  0.72125776  0.79007339     0.17900
C1641       C  0.29003795  0.68946010  0.78489771    -0.27400
C1642       C  0.28223785  0.67517427  0.79737475     0.06200
C1643       C  0.28327063  0.68552714  0.81080502     0.25800
C1644       C  0.29388105  0.71019835  0.81190257    -0.11900
C1645       C  0.30326878  0.72492868  0.79957419    -0.25800
C1646       C  0.30002780  0.71412620  0.78591669     0.36600
C1647       C  0.27580447  0.65020708  0.79673543     0.06200
F1648       F  0.27584555  0.67204407  0.82303821    -0.19600
H1649       H  0.29624041  0.71780460  0.82259935     0.16100
F1650       F  0.30716136  0.72740651  0.77360876    -0.23300
H1651       H  0.28901426  0.68157511  0.77443523     0.17800
C1652       C  0.25284905  0.63124259  0.80069529     0.25800
C1653       C  0.24792536  0.60796100  0.80158741    -0.11900
C1654       C  0.26591711  0.60334516  0.79871096    -0.25900
C1655       C  0.28889590  0.62246012  0.79464138     0.36800
C1656       C  0.29365046  0.64562725  0.79355210    -0.27500
F1657       F  0.23535555  0.63534787  0.80385795    -0.19600
H1658       H  0.23007485  0.59354226  0.80463535     0.16000
F1659       F  0.30719998  0.61915783  0.79257683    -0.23300
H1660       H  0.31160976  0.66023782  0.79083004     0.17900
C1661       C  0.36798034  0.79976172  0.75046040    -0.27400
C1662       C  0.35057414  0.80191574  0.74329937     0.06200
C1663       C  0.33304791  0.80257828  0.75159916     0.25800
C1664       C  0.33260504  0.80030743  0.76670478    -0.11900
C1665       C  0.34937363  0.79701002  0.77368448    -0.25800
C1666       C  0.36738463  0.79727607  0.76547270     0.36600
C1667       C  0.34969589  0.80110207  0.72721908     0.06200
F1668       F  0.31596370  0.80470385  0.74508390    -0.19600
H1669       H  0.31837724  0.79975375  0.77286095     0.16100
F1670       F  0.38387542  0.79414615  0.77193348    -0.23300
H1671       H  0.38138655  0.79874863  0.74435760     0.17800
C1672       C  0.37067376  0.81485748  0.71886830     0.25800
C1673       C  0.37026328  0.81123459  0.70391841    -0.11900
C1674       C  0.34900037  0.79396769  0.69709816    -0.25900
C1675       C  0.32788178  0.78086330  0.70524614     0.36800
C1676       C  0.32822321  0.78447199  0.72018133    -0.27500
F1677       F  0.39169712  0.83130408  0.72522287    -0.19600
H1678       H  0.38674042  0.82120646  0.69774413     0.16000
F1679       F  0.30718719  0.76382908  0.69883740    -0.23300
H1680       H  0.31194983  0.77332872  0.72635540     0.17900
C1681       C  0.50797691  0.79985481  0.35732862    -0.27400
C1682       C  0.52865521  0.82294726  0.35769832     0.06200
C1683       C  0.54029401  0.83379398  0.34459067     0.25800
C1684       C  0.53065911  0.82211369  0.33132704    -0.11900
C1685       C  0.50919554  0.79928803  0.33086055    -0.25800
C1686       C  0.49833874  0.78818702  0.34419364     0.36600
C1687       C  0.53670463  0.83588721  0.37175976     0.06200
F1688       F  0.56025653  0.85622097  0.34454817    -0.19600
H1689       H  0.53974130  0.83157697  0.32155233     0.16100
F1690       F  0.47768650  0.76625854  0.34454258    -0.23300
H1691       H  0.49884811  0.79101132  0.36730353     0.17800
C1692       C  0.52052705  0.83822759  0.38034711     0.25800
C1693       C  0.52719395  0.84873633  0.39402945    -0.11900
C1694       C  0.55014260  0.85720649  0.39955145    -0.25900
C1695       C  0.56671009  0.85565440  0.39078391     0.36800
C1696       C  0.55999071  0.84508455  0.37699119    -0.27500
F1697       F  0.49815454  0.83031928  0.37547704    -0.19600
H1698       H  0.51414254  0.84994715  0.40040807     0.16000
F1699       F  0.58914642  0.86381280  0.39562713    -0.23300
H1700       H  0.57274783  0.84348647  0.37055432     0.17900
C1701       C  0.54686441  0.72260151  0.61876733    -0.27400
C1702       C  0.54472397  0.70139222  0.61411278     0.06200
C1703       C  0.53431038  0.68163430  0.62354229     0.25800
C1704       C  0.52349646  0.68214738  0.63642173    -0.11900
C1705       C  0.52228180  0.70211247  0.64007107    -0.25800
C1706       C  0.53621484  0.72320470  0.63174801     0.36600
C1707       C  0.55141601  0.69930390  0.59906349     0.06200
F1708       F  0.53379620  0.66147165  0.62004481    -0.19600
H1709       H  0.51478412  0.66626633  0.64315262     0.16100
F1710       F  0.54018108  0.74456662  0.63611208    -0.23300
H1711       H  0.55594377  0.73849990  0.61205563     0.17800
C1712       C  0.53490457  0.68001778  0.59034231     0.25800
C1713       C  0.54049082  0.67835623  0.57601897    -0.11900
C1714       C  0.56248216  0.69599319  0.56988489    -0.25900
C1715       C  0.57899625  0.71551251  0.57849853     0.36800
C1716       C  0.57344429  0.71710843  0.59297324    -0.27500
F1717       F  0.51284020  0.66322430  0.59545634    -0.19600
H1718       H  0.52726411  0.66329596  0.56962862     0.16000
F1719       F  0.60027196  0.73316994  0.57292840    -0.23300
H1720       H  0.58631779  0.73228186  0.59942497     0.17900
C1721       C  0.55527178  0.79404132  0.47512633    -0.27400
C1722       C  0.57809955  0.79967113  0.47932835     0.06200
C1723       C  0.59830415  0.82160468  0.47481754     0.25800
C1724       C  0.59554304  0.83777739  0.46666636    -0.11900
C1725       C  0.57264091  0.83240675  0.46284765    -0.25800
C1726       C  0.55248494  0.81017739  0.46704115     0.36600
C1727       C  0.58038502  0.78270749  0.48865126     0.06200
F1728       F  0.62064912  0.82782985  0.47875272    -0.19600
H1729       H  0.61135006  0.85474334  0.46358504     0.16100
F1730       F  0.52999945  0.80407169  0.46353484    -0.23300
H1731       H  0.53945699  0.77707088  0.47820422     0.17800
C1732       C  0.56603149  0.77288311  0.50110185     0.25800
C1733       C  0.56673165  0.75553270  0.50924388    -0.11900
C1734       C  0.58181482  0.74759787  0.50526249    -0.25900
C1735       C  0.59702090  0.75820100  0.49318546     0.36800
C1736       C  0.59620935  0.77553260  0.48495206    -0.27500
F1737       F  0.55122999  0.78003228  0.50540552    -0.19600
H1738       H  0.55502770  0.74794267  0.51857082     0.16000
F1739       F  0.61208728  0.75131880  0.48903221    -0.23300
H1740       H  0.60742074  0.78279755  0.47540563     0.17900
C1741       C  0.33221025  0.83275923  0.59484995    -0.27400
C1742       C  0.35102887  0.83135351  0.60053186     0.06200
C1743       C  0.37229461  0.84072747  0.59254875     0.25800
C1744       C  0.37461437  0.85112936  0.57903501    -0.11900
C1745       C  0.35570816  0.85220663  0.57311182    -0.25800
C1746       C  0.33442325  0.84300190  0.58119153     0.36600
C1747       C  0.34847349  0.81957274  0.61458352     0.06200
F1748       F  0.39087610  0.83985167  0.59786869    -0.19600
H1749       H  0.39121234  0.85808061  0.57310218     0.16100
F1750       F  0.31562070  0.84340092  0.57581033    -0.23300
H1751       H  0.31564131  0.82545815  0.60087074     0.17800
C1752       C  0.34643702  0.82936670  0.62755333     0.25800
C1753       C  0.34623841  0.81917449  0.64088107    -0.11900
C1754       C  0.34795442  0.79888687  0.64149070    -0.25900
C1755       C  0.34914058  0.78874713  0.62827879     0.36800
C1756       C  0.34955374  0.79909383  0.61506089    -0.27500
F1757       F  0.34560504  0.84936890  0.62733999    -0.19600
H1758       H  0.34507634  0.82760432  0.65054999     0.16000
F1759       F  0.35044460  0.76899253  0.62815002    -0.23300
H1760       H  0.35103572  0.79126642  0.60512828     0.17900
C1761       C  0.44743314  0.86911585  0.50359064    -0.27400
C1762       C  0.45382317  0.88023321  0.48996634     0.06200
C1763       C  0.44102839  0.88987624  0.48438172     0.25800
C1764       C  0.42251164  0.88871862  0.49243536    -0.11900
C1765       C  0.41631851  0.87784035  0.50614579    -0.25800
C1766       C  0.42890816  0.86789125  0.51162456     0.36600
C1767       C  0.47358681  0.88137822  0.48160815     0.06200
F1768       F  0.44681162  0.90095648  0.47130120    -0.19600
H1769       H  0.41312963  0.89651757  0.48797406     0.16100
F1770       F  0.42353222  0.85713910  0.52480189    -0.23300
H1771       H  0.45672593  0.86118272  0.50799366     0.17800
C1772       C  0.49594278  0.88953983  0.48804077     0.25800
C1773       C  0.51424973  0.89010284  0.48007125    -0.11900
C1774       C  0.51060665  0.88251082  0.46557662    -0.25900
C1775       C  0.48821156  0.87432904  0.45918248     0.36800
C1776       C  0.46997150  0.87379850  0.46713964    -0.27500
F1777       F  0.50022349  0.89735076  0.50195207    -0.19600
H1778       H  0.53130323  0.89651215  0.48524964     0.16000
F1779       F  0.48373853  0.86653034  0.44527677    -0.23300
H1780       H  0.45279826  0.86706050  0.46203638     0.17900
C1781       C  0.21596997  0.70410545  0.37194538    -0.27400
C1782       C  0.20140436  0.68528098  0.36241752     0.06200
C1783       C  0.17865281  0.66667860  0.36709143     0.25800
C1784       C  0.17109986  0.66650801  0.38129934    -0.11900
C1785       C  0.18594075  0.68506309  0.39095305    -0.25800
C1786       C  0.20829086  0.70415874  0.38604782     0.36600
C1787       C  0.21140542  0.68366245  0.34843755     0.06200
F1788       F  0.16438586  0.64799370  0.35821349    -0.19600
H1789       H  0.15384737  0.65159748  0.38486459     0.16100
F1790       F  0.22338527  0.72209169  0.39514128    -0.23300
H1791       H  0.23368109  0.71842530  0.36856819     0.17800
C1792       C  0.20084493  0.68288713  0.33511258     0.25800
C1793       C  0.21058385  0.68070867  0.32211796    -0.11900
C1794       C  0.23090951  0.67902663  0.32224822    -0.25900
C1795       C  0.24132559  0.67993784  0.33576679     0.36800
C1796       C  0.23175264  0.68235183  0.34859168    -0.27500
F1797       F  0.18128627  0.68447534  0.33466877    -0.19600
H1798       H  0.20189158  0.68010250  0.31213497     0.16000
F1799       F  0.26075895  0.67814375  0.33661733    -0.23300
H1800       H  0.24003113  0.68274216  0.35876978     0.17900
C1801       C  0.25958429  0.76662039  0.46618844    -0.27400
C1802       C  0.25211459  0.77648401  0.47673697     0.06200
C1803       C  0.22792413  0.76929451  0.47718941     0.25800
C1804       C  0.21132913  0.75166206  0.46766177    -0.11900
C1805       C  0.21862991  0.74110581  0.45742489    -0.25800
C1806       C  0.24314688  0.74930127  0.45653338     0.36600
C1807       C  0.26965968  0.79380146  0.48737967     0.06200
F1808       F  0.22018443  0.77856966  0.48725228    -0.19600
H1809       H  0.19263923  0.74576651  0.46858560     0.16100
F1810       F  0.25126886  0.74029762  0.44652418    -0.23300
H1811       H  0.27823477  0.77224659  0.46551638     0.17800
C1812       C  0.28166875  0.78703025  0.49674816     0.25800
C1813       C  0.29924725  0.80375699  0.50618025    -0.11900
C1814       C  0.30541691  0.82764864  0.50637605    -0.25900
C1815       C  0.29294596  0.83425625  0.49721772     0.36800
C1816       C  0.27515822  0.81740576  0.48787522    -0.27500
F1817       F  0.27638912  0.76419899  0.49675418    -0.19600
H1818       H  0.30842017  0.79808599  0.51313110     0.16000
F1819       F  0.29817945  0.85705572  0.49707898    -0.23300
H1820       H  0.26608917  0.82293992  0.48072853     0.17900
C1821       C  0.37012298  0.51240968  0.37371519    -0.27400
C1822       C  0.35208519  0.49301760  0.36579778     0.06200
C1823       C  0.33750875  0.47084149  0.37271662     0.25800
C1824       C  0.34045057  0.46840308  0.38749960    -0.11900
C1825       C  0.35795376  0.48806311  0.39559521    -0.25800
C1826       C  0.37307477  0.51006335  0.38845866     0.36600
C1827       C  0.34741095  0.49701397  0.35075969     0.06200
F1828       F  0.32037154  0.45164659  0.36517698    -0.19600
H1829       H  0.32883899  0.45120069  0.39265123     0.16100
F1830       F  0.39035616  0.52954035  0.39575267    -0.23300
H1831       H  0.38143429  0.52967893  0.36855206     0.17800
C1832       C  0.32634779  0.49620395  0.34746210     0.25800
C1833       C  0.32418497  0.50518690  0.33426401    -0.11900
C1834       C  0.34309958  0.51526705  0.32409484    -0.25900
C1835       C  0.36273080  0.51289853  0.32673239     0.36800
C1836       C  0.36514942  0.50453595  0.34010282    -0.27500
F1837       F  0.30860726  0.48842849  0.35746465    -0.19600
H1838       H  0.30796463  0.50487266  0.33248531     0.16000
F1839       F  0.38065270  0.52068068  0.31684909    -0.23300
H1840       H  0.38132947  0.50483462  0.34237062     0.17900
C1841       C  0.45233928  0.58068161  0.46505029    -0.27400
C1842       C  0.45793241  0.57694575  0.47900540     0.06200
C1843       C  0.44486874  0.55383924  0.48501910     0.25800
C1844       C  0.42644143  0.53480613  0.47713190    -0.11900
C1845       C  0.42070762  0.53854570  0.46316693    -0.25800
C1846       C  0.43392519  0.56172969  0.45717207     0.36600
C1847       C  0.47773103  0.59718410  0.48706730     0.06200
F1848       F  0.45035549  0.54958863  0.49834906    -0.19600
H1849       H  0.41668476  0.51712288  0.48194757     0.16100
F1850       F  0.42926635  0.56613653  0.44365098    -0.23300
H1851       H  0.46226028  0.59838714  0.46026260     0.17800
C1852       C  0.50099786  0.60998305  0.48125663     0.25800
C1853       C  0.51975960  0.62885356  0.48899710    -0.11900
C1854       C  0.51563436  0.63547747  0.50259696    -0.25900
C1855       C  0.49212789  0.62305529  0.50823046     0.36800
C1856       C  0.47342038  0.60394096  0.50054657    -0.27500
F1857       F  0.50568463  0.60379240  0.46825312    -0.19600
H1858       H  0.53762038  0.63811368  0.48439974     0.16000
F1859       F  0.48717337  0.62922693  0.52115952    -0.23300
H1860       H  0.45549437  0.59447263  0.50506635     0.17900
C1861       C  0.19231650  0.47843442  0.58943383    -0.27400
C1862       C  0.20188870  0.50122955  0.59556578     0.06200
C1863       C  0.20132920  0.51891099  0.58744675     0.25800
C1864       C  0.19280428  0.51433385  0.57329190    -0.11900
C1865       C  0.18436308  0.49200110  0.56686803    -0.25800
C1866       C  0.18350030  0.47376470  0.57521630     0.36600
C1867       C  0.21415927  0.50750709  0.60984931     0.06200
F1868       F  0.20940887  0.54088395  0.59312448    -0.19600
H1869       H  0.19333102  0.52859057  0.56723452     0.16100
F1870       F  0.17478278  0.45167312  0.56955463    -0.23300
H1871       H  0.19251197  0.46452214  0.59543048     0.17800
C1872       C  0.20378366  0.49339731  0.62237020     0.25800
C1873       C  0.21489181  0.50170600  0.63595168    -0.11900
C1874       C  0.23652552  0.52416637  0.63719153    -0.25900
C1875       C  0.24742010  0.53727660  0.62436097     0.36800
C1876       C  0.23652387  0.52890509  0.61100356    -0.27500
F1877       F  0.18241369  0.47221480  0.62161250    -0.19600
H1878       H  0.20600402  0.49093832  0.64541895     0.16000
F1879       F  0.26823959  0.55907924  0.62478927    -0.23300
H1880       H  0.24536789  0.53971499  0.60149433     0.17900
C1881       C  0.18842882  0.60196549  0.45816337    -0.27400
C1882       C  0.18403152  0.59909434  0.47314295     0.06200
C1883       C  0.17848721  0.61426975  0.48033501     0.25800
C1884       C  0.17653374  0.63125018  0.47256676    -0.11900
C1885       C  0.18009959  0.63352352  0.45750255    -0.25800
C1886       C  0.18646618  0.61893423  0.45039356     0.36600
C1887       C  0.18396414  0.57950278  0.48105281     0.06200
F1888       F  0.17386803  0.61198394  0.49477034    -0.19600
H1889       H  0.17172069  0.64230904  0.47833081     0.16100
F1890       F  0.19026121  0.62061394  0.43587929    -0.23300
H1891       H  0.19313516  0.59081441  0.45241485     0.17800
C1892       C  0.17094218  0.55587686  0.47574181     0.25800
C1893       C  0.16922275  0.53718576  0.48383898    -0.11900
C1894       C  0.18039068  0.54157754  0.49738826    -0.25900
C1895       C  0.19426710  0.56534837  0.50242251     0.36800
C1896       C  0.19598765  0.58404935  0.49431489    -0.27500
F1897       F  0.15885547  0.55061496  0.46305276    -0.19600
H1898       H  0.15853048  0.51911136  0.47966248     0.16000
F1899       F  0.20576108  0.57053779  0.51532194    -0.23300
H1900       H  0.20652284  0.60212698  0.49850227     0.17900
C1901       C  0.25825155  0.48791817  0.49762609    -0.27400
C1902       C  0.25135365  0.46921291  0.48776196     0.06200
C1903       C  0.22692523  0.45111556  0.48654929     0.25800
C1904       C  0.20969930  0.45263992  0.49448135    -0.11900
C1905       C  0.21663759  0.47202678  0.50385619    -0.25800
C1906       C  0.24118905  0.48939605  0.50557595     0.36600
C1907       C  0.26977091  0.46981022  0.47825971     0.06200
F1908       F  0.21963892  0.43265544  0.47719569    -0.19600
H1909       H  0.19092568  0.43897918  0.49303788     0.16100
F1910       F  0.24877987  0.50850547  0.51444158    -0.23300
H1911       H  0.27698992  0.50181821  0.49892741     0.17800
C1912       C  0.28574083  0.49073141  0.47046330     0.25800
C1913       C  0.30393708  0.49197802  0.46210220    -0.11900
C1914       C  0.30663366  0.47241302  0.46122077    -0.25900
C1915       C  0.29028300  0.45119531  0.46871981     0.36800
C1916       C  0.27202252  0.44997357  0.47716993    -0.27500
F1917       F  0.28365503  0.51000382  0.47084725    -0.19600
H1918       H  0.31612862  0.50848032  0.45640073     0.16000
F1919       F  0.29215613  0.43181640  0.46813124    -0.23300
H1920       H  0.25997491  0.43372100  0.48312954     0.17900
C1921       C  0.62350403  0.63011236  0.53810989    -0.27400
C1922       C  0.64600297  0.64130777  0.53131392     0.06200
C1923       C  0.65424161  0.66284550  0.52373143     0.25800
C1924       C  0.64021087  0.67288047  0.52308457    -0.11900
C1925       C  0.61754724  0.66146104  0.52976719    -0.25800
C1926       C  0.60936774  0.63988364  0.53729803     0.36600
C1927       C  0.65994638  0.62959694  0.53167845     0.06200
F1928       F  0.67592049  0.67428160  0.51704804    -0.19600
H1929       H  0.64694481  0.68942655  0.51717609     0.16100
F1930       F  0.58755555  0.62798840  0.54382598    -0.23300
H1931       H  0.61654207  0.61333181  0.54379587     0.17800
C1932       C  0.66404490  0.62160982  0.54481068     0.25800
C1933       C  0.67483470  0.60830695  0.54487204    -0.11900
C1934       C  0.68182838  0.60265869  0.53187321    -0.25900
C1935       C  0.67831052  0.61122714  0.51877102     0.36800
C1936       C  0.66757238  0.62458203  0.51872453    -0.27500
F1937       F  0.65744509  0.62652792  0.55760022    -0.19600
H1938       H  0.67731088  0.60202141  0.55512239     0.16000
F1939       F  0.68423578  0.60582755  0.50591229    -0.23300
H1940       H  0.66431653  0.63019167  0.50846060     0.17900
C1941       C  0.00474129  0.59001341  0.42970936    -0.27400
C1942       C  0.01780231  0.61441575  0.43342279     0.06200
C1943       C  0.00510746  0.62514874  0.43727000     0.25800
C1944       C  0.97999615  0.61137772  0.43809931    -0.11900
C1945       C  0.96706109  0.58669260  0.43511505    -0.25800
C1946       C  0.97975024  0.57624298  0.43062494     0.36600
C1947       C  0.04448029  0.62781417  0.43419616     0.06200
F1948       F  0.01695678  0.64863993  0.44094657    -0.19600
H1949       H  0.97070534  0.61992646  0.44148243     0.16100
F1950       F  0.96813733  0.55255778  0.42744281    -0.23300
H1951       H  0.01399649  0.58140080  0.42637109     0.17800
C1952       C  0.05560679  0.61763262  0.44136779     0.25800
C1953       C  0.08051671  0.62956615  0.44180945    -0.11900
C1954       C  0.09515837  0.65210583  0.43528626    -0.25900
C1955       C  0.08416979  0.66273410  0.42842852     0.36800
C1956       C  0.05904315  0.65060617  0.42785775    -0.27500
F1957       F  0.04237929  0.59619437  0.44820207    -0.19600
H1958       H  0.08837735  0.62099334  0.44729591     0.16000
F1959       F  0.09759536  0.68451557  0.42202175    -0.23300
H1960       H  0.05097034  0.65883755  0.42222497     0.17900
C1961       C  0.85040785  0.51523078  0.34408229    -0.27400
C1962       C  0.84104018  0.52142587  0.35564221     0.06200
C1963       C  0.81972228  0.52069111  0.35367693     0.25800
C1964       C  0.80715561  0.51243763  0.34066772    -0.11900
C1965       C  0.81541463  0.50438878  0.32928949    -0.25800
C1966       C  0.83794335  0.50708826  0.33098514     0.36600
C1967       C  0.85213532  0.52642079  0.37014586     0.06200
F1968       F  0.81013653  0.52638183  0.36473895    -0.19600
H1969       H  0.79054065  0.51162806  0.34011254     0.16100
F1970       F  0.84714650  0.50026984  0.32029817    -0.23300
H1971       H  0.86699159  0.51590232  0.34539367     0.17800
C1972       C  0.85197337  0.50814391  0.37790651     0.25800
C1973       C  0.86066013  0.51214643  0.39207498    -0.11900
C1974       C  0.86972646  0.53446210  0.39877945    -0.25900
C1975       C  0.87007097  0.55286170  0.39091418     0.36800
C1976       C  0.86122570  0.54876394  0.37674371    -0.27500
F1977       F  0.84250571  0.48610512  0.37196469    -0.19600
H1978       H  0.86001968  0.49762156  0.39787064     0.16000
F1979       F  0.87853795  0.57465968  0.39695569    -0.23300
H1980       H  0.86123945  0.56295864  0.37094092     0.17900
C1981       C  0.80706144  0.54921092  0.46785650    -0.27400
C1982       C  0.81478161  0.56372998  0.48025506     0.06200
C1983       C  0.83929573  0.57666440  0.48373584     0.25800
C1984       C  0.85550410  0.57423992  0.47525981    -0.11900
C1985       C  0.84754222  0.55884452  0.46321434    -0.25800
C1986       C  0.82318766  0.54683700  0.45937766     0.36600
C1987       C  0.79671245  0.56332420  0.49007544     0.06200
F1988       F  0.84733958  0.59052421  0.49578234    -0.19600
H1989       H  0.87413310  0.58370625  0.47845035     0.16100
F1990       F  0.81478517  0.53240884  0.44757135    -0.23300
H1991       H  0.78830192  0.53924214  0.46490867     0.17800
C1992       C  0.79745372  0.58427090  0.49390675     0.25800
C1993       C  0.77960295  0.58297136  0.50290430    -0.11900
C1994       C  0.76079199  0.56079598  0.50825916    -0.25900
C1995       C  0.76037531  0.53994659  0.50448641     0.36800
C1996       C  0.77805646  0.54128541  0.49549951    -0.27500
F1997       F  0.81494793  0.60582800  0.48857691    -0.19600
H1998       H  0.78028112  0.59925501  0.50549087     0.16000
F1999       F  0.74280114  0.51808873  0.50940609    -0.23300
H2000       H  0.77720426  0.52494908  0.49276402     0.17900
C2001       C  0.05625669  0.43529310  0.53429153    -0.27400
C2002       C  0.04429797  0.41063823  0.53148508     0.06200
C2003       C  0.05764300  0.40108808  0.52669271     0.25800
C2004       C  0.08243026  0.41601802  0.52473875    -0.11900
C2005       C  0.09435079  0.44067814  0.52754523    -0.25800
C2006       C  0.08098665  0.45018276  0.53241559     0.36600
C2007       C  0.01783705  0.39550304  0.53285240     0.06200
F2008       F  0.04679668  0.37729492  0.52409038    -0.19600
H2009       H  0.09231902  0.40823881  0.52107343     0.16100
F2010       F  0.09168442  0.47389654  0.53526207    -0.23300
H2011       H  0.04633953  0.44319049  0.53767600     0.17800
C2012       C  0.00613146  0.39763997  0.54493865     0.25800
C2013       C  0.98122896  0.38605707  0.54511234    -0.11900
C2014       C  0.96750987  0.37182489  0.53339058    -0.25900
C2015       C  0.97903289  0.36835711  0.52174663     0.36800
C2016       C  0.00400069  0.38028701  0.52145461    -0.27500
F2017       F  0.01878989  0.41130792  0.55646191    -0.19600
H2018       H  0.97269027  0.38869223  0.55429545     0.16000
F2019       F  0.96637390  0.35473348  0.51021723    -0.23300
H2020       H  0.01256870  0.37852740  0.51196441     0.17900
C2021       C  0.91080642  0.44245107  0.49979449    -0.27400
C2022       C  0.88884891  0.43726528  0.49415980     0.06200
C2023       C  0.86817407  0.41451302  0.49672497     0.25800
C2024       C  0.86955836  0.39735117  0.50470898    -0.11900
C2025       C  0.89159900  0.40240454  0.51013157    -0.25800
C2026       C  0.91224866  0.42524598  0.50765990     0.36600
C2027       C  0.88780438  0.45544594  0.48534762     0.06200
F2028       F  0.84658453  0.40894564  0.49161878    -0.19600
H2029       H  0.85340002  0.37993284  0.50644860     0.16100
F2030       F  0.93389214  0.43099134  0.51278122    -0.23300
H2031       H  0.92700799  0.45975335  0.49784787     0.17800
C2032       C  0.89785434  0.47898148  0.49042407     0.25800
C2033       C  0.89753867  0.49615581  0.48179453    -0.11900
C2034       C  0.88733014  0.49030982  0.46790318    -0.25900
C2035       C  0.87692511  0.46663363  0.46292400     0.36800
C2036       C  0.87721837  0.44946102  0.47157522    -0.27500
F2037       F  0.90780985  0.48533515  0.50378943    -0.19600
H2038       H  0.90559076  0.51417885  0.48594254     0.16000
F2039       F  0.86678656  0.46008498  0.44961693    -0.23300
H2040       H  0.86957888  0.43152353  0.46737266     0.17900
C2041       C  0.62394067  0.99511480  0.43084536    -0.27400
C2042       C  0.64186789  0.00673548  0.44133816     0.06200
C2043       C  0.64560558  0.99294112  0.45120530     0.25800
C2044       C  0.63117457  0.96788321  0.45071073    -0.11900
C2045       C  0.61272564  0.95626167  0.44044670    -0.25800
C2046       C  0.60948191  0.97019207  0.43037579     0.36600
C2047       C  0.65515350  0.03315187  0.44241315     0.06200
F2048       F  0.66309929  0.00370237  0.46132691    -0.19600
H2049       H  0.63410000  0.95759211  0.45855256     0.16100
F2050       F  0.59188577  0.95983438  0.42029746    -0.23300
H2051       H  0.62057767  0.00542836  0.42326934     0.17800
C2052       C  0.66640974  0.04755904  0.43018146     0.25800
C2053       C  0.67570296  0.07212138  0.43068953    -0.11900
C2054       C  0.67386426  0.08275680  0.44337066    -0.25900
C2055       C  0.66350611  0.06846879  0.45581094     0.36800
C2056       C  0.65429638  0.04389950  0.45529651    -0.27500
F2057       F  0.66791959  0.03774840  0.41764265    -0.19600
H2058       H  0.68374362  0.08270740  0.42100166     0.16000
F2059       F  0.66128724  0.07794378  0.46828970    -0.23300
H2060       H  0.64544265  0.03304376  0.46478487     0.17900
C2061       C  0.67714140  0.18955479  0.38201862    -0.27400
C2062       C  0.69112570  0.18794877  0.37120674     0.06200
C2063       C  0.70577585  0.17938869  0.37487758     0.25800
C2064       C  0.70620203  0.17244845  0.38915751    -0.11900
C2065       C  0.69215441  0.17408296  0.39998257    -0.25800
C2066       C  0.67761391  0.18277007  0.39623374     0.36600
C2067       C  0.69056424  0.19606641  0.35634989     0.06200
F2068       F  0.71928365  0.17733104  0.36463104    -0.19600
H2069       H  0.71748535  0.16575358  0.39173907     0.16100
F2070       F  0.66394352  0.18495847  0.40629976    -0.23300
H2071       H  0.66602485  0.19646550  0.37946959     0.17800
C2072       C  0.66859820  0.18745785  0.34940053     0.25800
C2073       C  0.66757565  0.19817302  0.33666858    -0.11900
C2074       C  0.68836471  0.21822371  0.33072797    -0.25900
C2075       C  0.71068555  0.22480078  0.33678477     0.36800
C2076       C  0.71167285  0.21406660  0.34959818    -0.27500
F2077       F  0.64797357  0.16895579  0.35513124    -0.19600
H2078       H  0.65027245  0.19065830  0.33167406     0.16000
F2079       F  0.73156392  0.24228328  0.33070048    -0.23300
H2080       H  0.72887988  0.22061170  0.35460562     0.17900
C2081       C  0.78884556  0.21108002  0.47929409    -0.27400
C2082       C  0.79911154  0.23570977  0.47704453     0.06200
C2083       C  0.78915467  0.24306197  0.46645721     0.25800
C2084       C  0.76886385  0.22611850  0.45874920    -0.11900
C2085       C  0.75795404  0.20152489  0.46145679    -0.25800
C2086       C  0.76841895  0.19411447  0.47165464     0.36600
C2087       C  0.81886421  0.25361521  0.48648139     0.06200
F2088       F  0.79815728  0.26664912  0.46412715    -0.19600
H2089       H  0.76120209  0.23234018  0.45097321     0.16100
F2090       F  0.75855271  0.17055024  0.47460586    -0.23300
H2091       H  0.79636694  0.20496071  0.48723588     0.17800
C2092       C  0.81684993  0.25128752  0.50164869     0.25800
C2093       C  0.83396299  0.26958924  0.51053482    -0.11900
C2094       C  0.85345676  0.29056626  0.50453953    -0.25900
C2095       C  0.85621464  0.29235932  0.48937153     0.36800
C2096       C  0.83904016  0.27403956  0.48047167    -0.27500
F2097       F  0.79756407  0.23198565  0.50792587    -0.19600
H2098       H  0.83145683  0.26768058  0.52215808     0.16000
F2099       F  0.87490250  0.31219531  0.48308357    -0.23300
H2100       H  0.84121072  0.27606777  0.46883373     0.17900
C2101       C  0.45149696  0.41205472  0.44147983    -0.27400
C2102       C  0.42640684  0.39791560  0.44126258     0.06200
C2103       C  0.41481140  0.37282899  0.44189964     0.25800
C2104       C  0.42830245  0.36226902  0.44279079    -0.11900
C2105       C  0.45347595  0.37656075  0.44290090    -0.25800
C2106       C  0.46490649  0.40162271  0.44221956     0.36600
C2107       C  0.41303144  0.40996044  0.44003105     0.06200
F2108       F  0.39058125  0.35856596  0.44118038    -0.19600
H2109       H  0.41909366  0.34294209  0.44316175     0.16100
F2110       F  0.48914404  0.41623810  0.44233962    -0.23300
H2111       H  0.46082558  0.43139891  0.44110979     0.17800
C2112       C  0.39470960  0.40530538  0.44984120     0.25800
C2113       C  0.38416255  0.41878998  0.44927353    -0.11900
C2114       C  0.39194419  0.43729032  0.43907043    -0.25900
C2115       C  0.40997285  0.44159076  0.42912430     0.36800
C2116       C  0.42021695  0.42795802  0.42957856    -0.27500
F2117       F  0.38793385  0.38869662  0.46045074    -0.19600
H2118       H  0.37046844  0.41528610  0.45712582     0.16000
F2119       F  0.41807831  0.45925146  0.41907439    -0.23300
H2120       H  0.43424001  0.43181653  0.42188904     0.17900
C2121       C  0.50836792  0.31308631  0.34949594    -0.27400
C2122       C  0.51302691  0.33505296  0.35473710     0.06200
C2123       C  0.52358688  0.35491692  0.34543413     0.25800
C2124       C  0.53124286  0.35326813  0.33162560    -0.11900
C2125       C  0.52980366  0.33220660  0.32705722    -0.25800
C2126       C  0.51636756  0.31149598  0.33573921     0.36600
C2127       C  0.50899799  0.33768675  0.37023007     0.06200
F2128       F  0.52736254  0.37619171  0.34991910    -0.19600
H2129       H  0.53993053  0.36913104  0.32487929     0.16100
F2130       F  0.51057494  0.28963081  0.33105894    -0.23300
H2131       H  0.49945579  0.29732528  0.35632753     0.17800
C2132       C  0.48655015  0.32283148  0.37686665     0.25800
C2133       C  0.48372638  0.32475984  0.39175675    -0.11900
C2134       C  0.50328981  0.34137050  0.40026787    -0.25900
C2135       C  0.52569771  0.35633639  0.39352449     0.36800
C2136       C  0.52841168  0.35449729  0.37868158    -0.27500
F2137       F  0.46736696  0.30664022  0.36892503    -0.19600
H2138       H  0.46626281  0.31316682  0.39664010     0.16000
F2139       F  0.54516477  0.37256861  0.40126565    -0.23300
H2140       H  0.54593405  0.36588121  0.37380751     0.17900
C2141       C  0.57032190  0.42026301  0.49173954    -0.27400
C2142       C  0.59110719  0.43800340  0.48453678     0.06200
C2143       C  0.59270437  0.43645256  0.46943586     0.25800
C2144       C  0.57360678  0.41784609  0.46172202    -0.11900
C2145       C  0.55256544  0.40040834  0.46886853    -0.25800
C2146       C  0.55115945  0.40168194  0.48401511     0.36600
C2147       C  0.61074841  0.45819364  0.49284648     0.06200
F2148       F  0.61284565  0.45272386  0.46214679    -0.19600
H2149       H  0.57523437  0.41721740  0.45008386     0.16100
F2150       F  0.53133314  0.38503617  0.49138795    -0.23300
H2151       H  0.56873488  0.42108049  0.50336799     0.17800
C2152       C  0.62001686  0.48205292  0.48870658     0.25800
C2153       C  0.63807716  0.50093510  0.49682989    -0.11900
C2154       C  0.64712106  0.49647179  0.50930676    -0.25900
C2155       C  0.63774425  0.47258839  0.51351364     0.36800
C2156       C  0.61974434  0.45369025  0.50533147    -0.27500
F2157       F  0.61107275  0.48715917  0.47707794    -0.19600
H2158       H  0.64487757  0.51912594  0.49338667     0.16000
F2159       F  0.64589843  0.46742442  0.52551086    -0.23300
H2160       H  0.61283189  0.43545314  0.50872972     0.17900
C2161       C  0.41815461  0.03651780  0.52442392    -0.27400
C2162       C  0.41654347  0.02522217  0.53762908     0.06200
C2163       C  0.42680498  0.03938746  0.55006032     0.25800
C2164       C  0.43954864  0.06436069  0.54906715    -0.11900
C2165       C  0.44219603  0.07568081  0.53571071    -0.25800
C2166       C  0.43077526  0.06150824  0.52344441     0.36600
C2167       C  0.40592655  0.99895990  0.53803172     0.06200
F2168       F  0.42488256  0.02909827  0.56311131    -0.19600
H2169       H  0.44796411  0.07489504  0.55870236     0.16100
F2170       F  0.43310275  0.07174051  0.51032084    -0.23300
H2171       H  0.41057761  0.02599084  0.51468436     0.17800
C2172       C  0.38324026  0.98285347  0.53208230     0.25800
C2173       C  0.37434342  0.95832003  0.53149122    -0.11900
C2174       C  0.38804808  0.94943112  0.53657923    -0.25900
C2175       C  0.41061490  0.96553511  0.54274570     0.36800
C2176       C  0.41932391  0.98998955  0.54352846    -0.27500
F2177       F  0.36972698  0.99087212  0.52678622    -0.19600
H2178       H  0.35695317  0.94633018  0.52668751     0.16000
F2179       F  0.42438656  0.95773628  0.54793427    -0.23300
H2180       H  0.43695557  0.00208024  0.54801684     0.17900
C2181       C  0.55812596  0.14315808  0.48283746    -0.27400
C2182       C  0.57908857  0.14702694  0.48931879     0.06200
C2183       C  0.58131700  0.14944728  0.50447394     0.25800
C2184       C  0.56332710  0.14872917  0.51283651    -0.11900
C2185       C  0.54261418  0.14538068  0.50634668    -0.25800
C2186       C  0.53997486  0.14217696  0.49123474     0.36600
C2187       C  0.59875737  0.14898916  0.48031504     0.06200
F2188       F  0.60080715  0.15226338  0.51125831    -0.19600
H2189       H  0.56570991  0.15094676  0.52444809     0.16100
F2190       F  0.52012569  0.13857915  0.48450016    -0.23300
H2191       H  0.55600065  0.14141446  0.47119854     0.17800
C2192       C  0.59410668  0.13222191  0.46937498     0.25800
C2193       C  0.61299536  0.13382527  0.46148348    -0.11900
C2194       C  0.63686550  0.15210171  0.46431822    -0.25900
C2195       C  0.64145358  0.16927283  0.47495353     0.36800
C2196       C  0.62257899  0.16771409  0.48279574    -0.27500
F2197       F  0.57141126  0.11377184  0.46664404    -0.19600
H2198       H  0.60893434  0.12042763  0.45331603     0.16000
F2199       F  0.66415790  0.18754330  0.47786370    -0.23300
H2200       H  0.62662163  0.18122880  0.49087436     0.17900
C2201       C  0.50562812  0.24038261  0.49980224    -0.27400
C2202       C  0.48436365  0.23412199  0.49263618     0.06200
C2203       C  0.46403902  0.21088687  0.49455156     0.25800
C2204       C  0.46520332  0.19429577  0.50333796    -0.11900
C2205       C  0.48664418  0.20046783  0.51029393    -0.25800
C2206       C  0.50684130  0.22384022  0.50851360     0.36600
C2207       C  0.48409698  0.25185797  0.48289954     0.06200
F2208       F  0.44337753  0.20387402  0.48744979    -0.19600
H2209       H  0.44946571  0.17638232  0.50438457     0.16100
F2210       F  0.52792163  0.23073756  0.51504259    -0.23300
H2211       H  0.52146346  0.25820327  0.49858457     0.17800
C2212       C  0.46674642  0.25779420  0.48432985     0.25800
C2213       C  0.46803477  0.27588400  0.47573777    -0.11900
C2214       C  0.48662257  0.28842539  0.46558924    -0.25900
C2215       C  0.50358101  0.28198970  0.46390928     0.36800
C2216       C  0.50227945  0.26395965  0.47248799    -0.27500
F2217       F  0.44924819  0.24697675  0.49450825    -0.19600
H2218       H  0.45482213  0.28052612  0.47731645     0.16000
F2219       F  0.52181927  0.29346001  0.45423031    -0.23300
H2220       H  0.51574766  0.25960263  0.47111357     0.17900
C2221       C  0.52738130  0.18767246  0.84795683    -0.27400
C2222       C  0.52275999  0.19840231  0.85944023     0.06200
C2223       C  0.52738873  0.22152677  0.85765424     0.25800
C2224       C  0.53721673  0.23401334  0.84467222    -0.11900
C2225       C  0.54291058  0.22375410  0.83320091    -0.25800
C2226       C  0.53727528  0.20008307  0.83500482     0.36600
C2227       C  0.51625215  0.18673445  0.87380766     0.06200
F2228       F  0.52393963  0.23267155  0.86883557    -0.19600
H2229       H  0.54132001  0.25206940  0.84419791     0.16100
F2230       F  0.54272249  0.18940374  0.82451656    -0.23300
H2231       H  0.52420284  0.16994610  0.84925330     0.17800
C2232       C  0.49341946  0.17739989  0.87986834     0.25800
C2233       C  0.48831970  0.16760846  0.89386059    -0.11900
C2234       C  0.50600156  0.16723589  0.90203042    -0.25900
C2235       C  0.52864800  0.17604839  0.89569224     0.36800
C2236       C  0.53360186  0.18561498  0.88172402    -0.27500
F2237       F  0.47616870  0.17785406  0.87228918    -0.19600
H2238       H  0.47071548  0.16081381  0.89842339     0.16000
F2239       F  0.54623818  0.17586244  0.90304415    -0.23300
H2240       H  0.55126975  0.19269813  0.87716178     0.17900
C2241       C  0.54200144  0.21615047  0.62024833    -0.27400
C2242       C  0.52095916  0.19365070  0.61883183     0.06200
C2243       C  0.50881553  0.18064044  0.63136287     0.25800
C2244       C  0.51838296  0.18981858  0.64515515    -0.11900
C2245       C  0.54025284  0.21204953  0.64655593    -0.25800
C2246       C  0.55162828  0.22521751  0.63380477     0.36600
C2247       C  0.51387594  0.18342613  0.60411898     0.06200
F2248       F  0.48849885  0.15859034  0.63023355    -0.19600
H2249       H  0.50914365  0.17899679  0.65454041     0.16100
F2250       F  0.57290361  0.24657952  0.63436880    -0.23300
H2251       H  0.55159478  0.22638672  0.61070445     0.17800
C2252       C  0.49349620  0.18028252  0.59727237     0.25800
C2253       C  0.48919459  0.17365848  0.58262588    -0.11900
C2254       C  0.50522869  0.17022991  0.57461309    -0.25900
C2255       C  0.52532766  0.17289078  0.58167605     0.36800
C2256       C  0.52953610  0.17945700  0.59623512    -0.27500
F2257       F  0.47838159  0.18459352  0.60455210    -0.19600
H2258       H  0.47355094  0.17163609  0.57748084     0.16000
F2259       F  0.54106397  0.16927995  0.57455206    -0.23300
H2260       H  0.54542113  0.18195747  0.60134859     0.17900
C2261       C  0.52942117  0.21342974  0.72425111    -0.27400
C2262       C  0.54641574  0.21281658  0.73301587     0.06200
C2263       C  0.56419629  0.21053967  0.72633439     0.25800
C2264       C  0.56603134  0.21091638  0.71124798    -0.11900
C2265       C  0.55010806  0.21325353  0.70252481    -0.25800
C2266       C  0.53122536  0.21366316  0.70911846     0.36600
C2267       C  0.54736949  0.21750246  0.74883851     0.06200
F2268       F  0.58108294  0.21007454  0.73433405    -0.19600
H2269       H  0.58084841  0.21084735  0.70638071     0.16100
F2270       F  0.51591277  0.21653769  0.70101796    -0.23300
H2271       H  0.51543900  0.21496222  0.72915196     0.17800
C2272       C  0.54791903  0.23785002  0.75388903     0.25800
C2273       C  0.55127311  0.24374311  0.76858627    -0.11900
C2274       C  0.55400993  0.22948195  0.77853018    -0.25900
C2275       C  0.55297243  0.20888000  0.77365401     0.36800
C2276       C  0.54969082  0.20295975  0.75890305    -0.27500
F2277       F  0.54660246  0.25283642  0.74450718    -0.19600
H2278       H  0.55228204  0.25980898  0.77218922     0.16000
F2279       F  0.55637521  0.19524461  0.78303548    -0.23300
H2280       H  0.54943893  0.18728430  0.75528727     0.17900
C2281       C  0.69948544  0.52053275  0.84213078    -0.27400
C2282       C  0.71534693  0.52731262  0.85379958     0.06200
C2283       C  0.73505675  0.52491800  0.85249140     0.25800
C2284       C  0.73844115  0.51526611  0.83996111    -0.11900
C2285       C  0.72199850  0.50731403  0.82840834    -0.25800
C2286       C  0.70281731  0.51083500  0.82954551     0.36600
C2287       C  0.71027901  0.53477371  0.86780147     0.06200
F2288       F  0.75021313  0.53033830  0.86377745    -0.19600
H2289       H  0.75345240  0.51323869  0.83994340     0.16100
F2290       F  0.68639299  0.50351294  0.81879588    -0.23300
H2291       H  0.68411797  0.52216299  0.84292898     0.17800
C2292       C  0.72788786  0.55584687  0.87479865     0.25800
C2293       C  0.72405351  0.56090535  0.88889814    -0.11900
C2294       C  0.70262645  0.54504612  0.89629401    -0.25900
C2295       C  0.68453062  0.52454412  0.88897791     0.36800
C2296       C  0.68836356  0.51957495  0.87486738    -0.27500
F2297       F  0.74897065  0.57132651  0.86807262    -0.19600
H2298       H  0.73816717  0.57691607  0.89418504     0.16000
F2299       F  0.66334361  0.50890663  0.89555314    -0.23300
H2300       H  0.67455299  0.50325089  0.86967556     0.17900
C2301       C  0.61550244  0.33878436  0.79065385    -0.27400
C2302       C  0.62311485  0.35267515  0.80327102     0.06200
C2303       C  0.61396394  0.34163935  0.81670605     0.25800
C2304       C  0.59831592  0.31684916  0.81755816    -0.11900
C2305       C  0.59120347  0.30256608  0.80499983    -0.25800
C2306       C  0.59944992  0.31396641  0.79144573     0.36600
C2307       C  0.64169597  0.37843462  0.80256130     0.06200
F2308       F  0.62130439  0.35469819  0.82909078    -0.19600
H2309       H  0.59286260  0.30882384  0.82819113     0.16100
F2310       F  0.59220938  0.30128673  0.77894336    -0.23300
H2311       H  0.62225603  0.34717944  0.78019574     0.17800
C2312       C  0.66524094  0.38609731  0.79861187     0.25800
C2313       C  0.68326690  0.41038687  0.79914089    -0.11900
C2314       C  0.67805238  0.42742567  0.80348847    -0.25900
C2315       C  0.65424826  0.41972639  0.80699103     0.36800
C2316       C  0.63629756  0.39536981  0.80665911    -0.27500
F2317       F  0.67095871  0.36996675  0.79485094    -0.19600
H2318       H  0.70145543  0.41572925  0.79659925     0.16000
F2319       F  0.64825196  0.43570379  0.81056346    -0.23300
H2320       H  0.61815177  0.38965973  0.80964900     0.17900
C2321       C  0.68825088  0.50831407  0.59462907    -0.27400
C2322       C  0.70999536  0.51924259  0.60213216     0.06200
C2323       C  0.73038507  0.53925619  0.59593475     0.25800
C2324       C  0.72909293  0.54753429  0.58217358    -0.11900
C2325       C  0.70738289  0.53616660  0.57446849    -0.25800
C2326       C  0.68681096  0.51675307  0.58105791     0.36600
C2327       C  0.71121324  0.50870180  0.61602725     0.06200
F2328       F  0.75170830  0.55014793  0.60292674    -0.19600
H2329       H  0.74517719  0.56252332  0.57742541     0.16100
F2330       F  0.66527829  0.50548359  0.57429342    -0.23300
H2331       H  0.67230874  0.49299700  0.59928136     0.17800
C2332       C  0.71680116  0.52144252  0.62909353     0.25800
C2333       C  0.71636039  0.51053356  0.64221271    -0.11900
C2334       C  0.71034288  0.48660832  0.64257909    -0.25900
C2335       C  0.70535518  0.47423114  0.62927708     0.36800
C2336       C  0.70561261  0.48509859  0.61626800    -0.27500
F2337       F  0.72182645  0.54416941  0.62923796    -0.19600
H2338       H  0.72049381  0.52102676  0.65193584     0.16000
F2339       F  0.69971115  0.45127282  0.62887786    -0.23300
H2340       H  0.70128374  0.47497417  0.60629939     0.17900
C2341       C  0.63148240  0.37194427  0.66179666    -0.27400
C2342       C  0.62649311  0.36187060  0.67567030     0.06200
C2343       C  0.63735503  0.37670520  0.68770435     0.25800
C2344       C  0.65364837  0.40125259  0.68580700    -0.11900
C2345       C  0.65981564  0.41136070  0.67185557    -0.25800
C2346       C  0.64817111  0.39638091  0.65982126     0.36600
C2347       C  0.61236402  0.33563758  0.67727029     0.06200
F2348       F  0.63279754  0.36726769  0.70124221    -0.19600
H2349       H  0.66212536  0.41207742  0.69527950     0.16100
F2350       F  0.65430040  0.40469043  0.64606656    -0.23300
H2351       H  0.62355298  0.36056875  0.65239042     0.17800
C2352       C  0.58831194  0.32189733  0.67305248     0.25800
C2353       C  0.57602681  0.29692249  0.67322865    -0.11900
C2354       C  0.58774633  0.28522921  0.67715536    -0.25900
C2355       C  0.61175903  0.29923378  0.68178437     0.36800
C2356       C  0.62377793  0.32416080  0.68192960    -0.27500
F2357       F  0.57689855  0.33265102  0.66849567    -0.19600
H2358       H  0.55747672  0.28675677  0.66987224     0.16000
F2359       F  0.62436902  0.28924556  0.68519565    -0.23300
H2360       H  0.64248424  0.33462157  0.68500241     0.17900
C2361       C  0.73439410  0.50688302  0.71815163    -0.27400
C2362       C  0.71610196  0.49164553  0.72789879     0.06200
C2363       C  0.69505963  0.47145945  0.72253661     0.25800
C2364       C  0.69295255  0.46598023  0.70780596    -0.11900
C2365       C  0.71164062  0.48052638  0.69815522    -0.25800
C2366       C  0.73212735  0.50149737  0.70334082     0.36600
C2367       C  0.71989563  0.49516714  0.74372043     0.06200
F2368       F  0.67713289  0.45623610  0.73165958    -0.19600
H2369       H  0.67682740  0.45011622  0.70395920     0.16100
F2370       F  0.75046122  0.51599769  0.69425585    -0.23300
H2371       H  0.75070311  0.52253122  0.72209413     0.17800
C2372       C  0.73872849  0.49459298  0.75019341     0.25800
C2373       C  0.74012452  0.49392673  0.76525583    -0.11900
C2374       C  0.72287010  0.49397509  0.77407268    -0.25900
C2375       C  0.70485310  0.49596248  0.76768604     0.36800
C2376       C  0.70329857  0.49641363  0.75257699    -0.27500
F2377       F  0.75478201  0.49292912  0.74195709    -0.19600
H2378       H  0.75410593  0.49257610  0.77000259     0.16000
F2379       F  0.68782227  0.49573333  0.77600902    -0.23300
H2380       H  0.68868746  0.49681647  0.74778192     0.17900
C2381       C  0.83289178  0.31940280  0.84844568    -0.27400
C2382       C  0.84735305  0.34107273  0.85584518     0.06200
C2383       C  0.85469625  0.36260092  0.84863592     0.25800
C2384       C  0.84562904  0.36232011  0.83496238    -0.11900
C2385       C  0.82833160  0.34056135  0.82831534    -0.25800
C2386       C  0.82374049  0.31910420  0.83471462     0.36600
C2387       C  0.85353502  0.34126377  0.87130661     0.06200
F2388       F  0.87017790  0.38397621  0.85501153    -0.19600
H2389       H  0.85184024  0.37935779  0.82985535     0.16100
F2390       F  0.80955431  0.29771258  0.82803927    -0.23300
H2391       H  0.82774026  0.30260706  0.85359166     0.17800
C2392       C  0.84754121  0.35280480  0.88163154     0.25800
C2393       C  0.85362689  0.35347658  0.89615453    -0.11900
C2394       C  0.86585164  0.34270789  0.90078218    -0.25900
C2395       C  0.87143525  0.33069259  0.89050266     0.36800
C2396       C  0.86517134  0.32989175  0.87590413    -0.27500
F2397       F  0.83546130  0.36318889  0.87769868    -0.19600
H2398       H  0.84887636  0.36266753  0.90379620     0.16000
F2399       F  0.88308938  0.31991673  0.89448837    -0.23300
H2400       H  0.86978110  0.32075884  0.86812929     0.17900
C2401       C  0.77565861  0.44392062  0.81370906    -0.27400
C2402       C  0.77644025  0.43485708  0.80017528     0.06200
C2403       C  0.76829140  0.44067825  0.78791650     0.25800
C2404       C  0.75870652  0.45483879  0.78926024    -0.11900
C2405       C  0.75618227  0.46263182  0.80295228    -0.25800
C2406       C  0.76541289  0.45750668  0.81518526     0.36600
C2407       C  0.78306269  0.41705908  0.79928992     0.06200
F2408       F  0.76878907  0.43191281  0.77472409    -0.19600
H2409       H  0.75246037  0.45876837  0.77961943     0.16100
F2410       F  0.76291501  0.46375643  0.82874267    -0.23300
H2411       H  0.78161939  0.43921153  0.82325088     0.17800
C2412       C  0.80649255  0.42335396  0.80218136     0.25800
C2413       C  0.81174745  0.40562227  0.80291669    -0.11900
C2414       C  0.79361188  0.38142876  0.80090760    -0.25900
C2415       C  0.77026239  0.37534877  0.79756536     0.36800
C2416       C  0.76514923  0.39310883  0.79670999    -0.27500
F2417       F  0.82410186  0.44656374  0.80448191    -0.19600
H2418       H  0.82989984  0.41073233  0.80530081     0.16000
F2419       F  0.75195681  0.35221923  0.79607721    -0.23300
H2420       H  0.74691245  0.38806578  0.79465433     0.17900
C2421       C  0.70853104  0.28733387  0.79221075    -0.27400
C2422       C  0.69610665  0.28285798  0.80532365     0.06200
C2423       C  0.70865015  0.28790804  0.81840291     0.25800
C2424       C  0.73349989  0.29877875  0.81830184    -0.11900
C2425       C  0.74626830  0.30434671  0.80515623    -0.25800
C2426       C  0.73330791  0.29760794  0.79208674     0.36600
C2427       C  0.67039708  0.27432390  0.80532159     0.06200
F2428       F  0.69706711  0.28363746  0.83127189    -0.19600
H2429       H  0.74277405  0.30389702  0.82856310     0.16100
F2430       F  0.74447163  0.30101728  0.77915517    -0.23300
H2431       H  0.69900964  0.28307794  0.78203491     0.17800
C2432       C  0.66265130  0.28816593  0.79888916     0.25800
C2433       C  0.63864983  0.28102097  0.79985788    -0.11900
C2434       C  0.62172530  0.25958546  0.80690243    -0.25900
C2435       C  0.62943624  0.24522920  0.81279588     0.36800
C2436       C  0.65362134  0.25279706  0.81219741    -0.27500
F2437       F  0.67849732  0.30910454  0.79215575    -0.19600
H2438       H  0.63359997  0.29277995  0.79543402     0.16000
F2439       F  0.61365911  0.22367300  0.81888786    -0.23300
H2440       H  0.65927825  0.24175084  0.81701665     0.17900
C2441       C  0.85621959  0.34769686  0.62765614    -0.27400
C2442       C  0.84745574  0.32908281  0.61752510     0.06200
C2443       C  0.82693863  0.30678820  0.62096628     0.25800
C2444       C  0.81429341  0.30381802  0.63376202    -0.11900
C2445       C  0.82166421  0.32315087  0.64337724    -0.25800
C2446       C  0.84373678  0.34470438  0.64053678     0.36600
C2447       C  0.85824518  0.33359152  0.60287300     0.06200
F2448       F  0.81811604  0.28828768  0.61147609    -0.19600
H2449       H  0.79843154  0.28643205  0.63561606     0.16100
F2450       F  0.85238760  0.36354492  0.64975227    -0.23300
H2451       H  0.87232131  0.36489545  0.62532883     0.17800
C2452       C  0.85965125  0.35165930  0.59415172     0.25800
C2453       C  0.86756995  0.35449267  0.57983639    -0.11900
C2454       C  0.87438892  0.33950120  0.57390827    -0.25900
C2455       C  0.87380918  0.32193679  0.58280559     0.36800
C2456       C  0.86561190  0.31893878  0.59713037    -0.27500
F2457       F  0.85232211  0.36589960  0.59927117    -0.19600
H2458       H  0.86800341  0.36827311  0.57330178     0.16000
F2459       F  0.88074726  0.30740706  0.57764836    -0.23300
H2460       H  0.86478209  0.30500957  0.60372270     0.17900
C2461       C  0.76942368  0.38738520  0.65440962    -0.27400
C2462       C  0.76733788  0.39553005  0.66799771     0.06200
C2463       C  0.77311830  0.38767705  0.68048118     0.25800
C2464       C  0.78049902  0.37155791  0.67937083    -0.11900
C2465       C  0.78193275  0.36274320  0.66581262    -0.25800
C2466       C  0.77649140  0.37100833  0.65327424     0.36600
C2467       C  0.75703809  0.41043577  0.66912874     0.06200
F2468       F  0.77144109  0.39549495  0.69374266    -0.19600
H2469       H  0.78499940  0.36589880  0.68916705     0.16100
F2470       F  0.77667059  0.36234265  0.63999352    -0.23300
H2471       H  0.76463784  0.39301047  0.64470670     0.17800
C2472       C  0.76928805  0.43393935  0.66377589     0.25800
C2473       C  0.75841013  0.44711737  0.66407408    -0.11900
C2474       C  0.73497392  0.43693370  0.66948780    -0.25900
C2475       C  0.72293799  0.41335344  0.67500245     0.36800
C2476       C  0.73401812  0.40043729  0.67491071    -0.27500
F2477       F  0.79168918  0.44405503  0.65820643    -0.19600
H2478       H  0.76824602  0.46522812  0.65989323     0.16000
F2479       F  0.69994422  0.40200707  0.67967466    -0.23300
H2480       H  0.72422831  0.38217341  0.67887700     0.17900
C2481       C  0.70073895  0.26339554  0.65735872    -0.27400
C2482       C  0.68986109  0.26101345  0.67081641     0.06200
C2483       C  0.70390631  0.26845657  0.68337710     0.25800
C2484       C  0.72876208  0.27984034  0.68228642    -0.11900
C2485       C  0.73995239  0.28405125  0.66868240    -0.25800
C2486       C  0.72553005  0.27490726  0.65621672     0.36600
C2487       C  0.66453659  0.25363111  0.67135435     0.06200
F2488       F  0.69384612  0.26648879  0.69654567    -0.19600
H2489       H  0.73930775  0.28644459  0.69206232     0.16100
F2490       F  0.73526421  0.27900893  0.64276749    -0.23300
H2491       H  0.69007439  0.25759020  0.64758238     0.17800
C2492       C  0.65705001  0.26639786  0.66327125     0.25800
C2493       C  0.63319144  0.25959912  0.66361423    -0.11900
C2494       C  0.61652527  0.24017942  0.67209858    -0.25900
C2495       C  0.62384838  0.22740268  0.68025049     0.36800
C2496       C  0.64783319  0.23419183  0.67991663    -0.27500
F2497       F  0.67294877  0.28575781  0.65526885    -0.19600
H2498       H  0.62767658  0.26960292  0.65732802     0.16000
F2499       F  0.60777480  0.20810773  0.68819394    -0.23300
H2500       H  0.65332637  0.22413468  0.68614993     0.17900
C2501       C  0.79767490  0.31174747  0.72143708    -0.27400
C2502       C  0.81515095  0.33397990  0.72733406     0.06200
C2503       C  0.82963791  0.35323605  0.71790380     0.25800
C2504       C  0.82618218  0.35031384  0.70291164    -0.11900
C2505       C  0.80826119  0.32826056  0.69715998    -0.25800
C2506       C  0.79417335  0.30891475  0.70648836     0.36600
C2507       C  0.81706445  0.33696681  0.74330357     0.06200
F2508       F  0.84699876  0.37486221  0.72317376    -0.19600
H2509       H  0.83698481  0.36543882  0.69580761     0.16100
F2510       F  0.77684147  0.28735183  0.70113150    -0.23300
H2511       H  0.78620565  0.29672660  0.72846406     0.17800
C2512       C  0.81552107  0.35516460  0.74997396     0.25800
C2513       C  0.81422012  0.35596419  0.76502244    -0.11900
C2514       C  0.81427013  0.33865264  0.77373772    -0.25900
C2515       C  0.81688167  0.32107933  0.76718400     0.36800
C2516       C  0.81816753  0.32022458  0.75206336    -0.27500
F2517       F  0.81354824  0.37117005  0.74196400    -0.19600
H2518       H  0.81220206  0.36966300  0.76988349     0.16000
F2519       F  0.81657067  0.30386184  0.77528638    -0.23300
H2520       H  0.81929072  0.30602395  0.74714313     0.17900
loop_ 
_geom_bond_atom_site_label_1 
_geom_bond_atom_site_label_2 
_geom_bond_distance 
_geom_bond_site_symmetry_2 
_ccdc_geom_bond_type 
C1            C2   1.540       .  S
C1            C7   1.543       .  S
C1            C5   1.548       .  S
C1         C2445   1.534       .  S
C2            H9   1.086       .  S
C2            C3   1.366       .  D
C3            C4   1.532       .  S
C3         C2505   1.473       .  S
C4            C8   1.535       .  S
C4            C6   1.534       .  S
C4           H10   1.109       .  S
C5           H11   1.079       .  S
C5            C6   1.367       .  D
C6         C2485   1.486       .  S
C7           H12   1.085       .  S
C7            C8   1.364       .  D
C8         C2465   1.488       .  S
C13          C14   1.549       .  S
C13          C19   1.542       .  S
C13          C17   1.545       .  S
C13        C2385   1.539       .  S
C14          H21   1.083       .  S
C14          C15   1.362       .  D
C15          C16   1.525       .  S
C15        C2414   1.479       .  S
C16          C20   1.533       .  S
C16          C18   1.537       .  S
C16          H22   1.107       .  S
C17          H23   1.084       .  S
C17          C18   1.368       .  D
C18        C2425   1.492       .  S
C19          H24   1.086       .  S
C19          C20   1.370       .  D
C20        C2514   1.481       .  S
C25          C26   1.545       .  S
C25          C31   1.542       .  S
C25          C29   1.542       .  S
C25        C2334   1.536       .  S
C26          H33   1.082       .  S
C26          C27   1.366       .  D
C27          C28   1.539       .  S
C27        C2365   1.482       .  S
C28          C32   1.537       .  S
C28          C30   1.538       .  S
C28          H34   1.108       .  S
C29          H35   1.086       .  S
C29          C30   1.368       .  D
C30        C2474   1.495       .  S
C31          H36   1.085       .  S
C31          C32   1.367       .  D
C32        C2345   1.491       .  S
C37          C38   1.539       .  S
C37          C43   1.542       .  S
C37          C41   1.552       .  S
C37        C2285   1.534       .  S
C38          H45   1.086       .  S
C38          C39   1.362       .  D
C39          C40   1.531       .  S
C39        C2314   1.484       .  S
C40          C44   1.532       .  S
C40          C42   1.535       .  S
C40          H46   1.108       .  S
C41          H47   1.076       .  S
C41          C42   1.370       .  D
C42        C2405   1.491       .  S
C43          H48   1.085       .  S
C43          C44   1.367       .  D
C44        C2374   1.477       .  S
C49          C50   1.551       .  S
C49          C55   1.537       .  S
C49          C53   1.536       .  S
C49        C2245   1.529       .  S
C50          H57   1.084       .  S
C50          C51   1.376       .  D
C51          C52   1.537       .  S
C51        C2265   1.482       .  S
C52          C56   1.528       .  S
C52          C54   1.541       .  S
C52          H58   1.109       .  S
C53          H59   1.086       .  S
C53          C54   1.364       .  D
C54        C2354   1.491       .  S
C55          H60   1.087       .  S
C55          C56   1.356       .  D
C56        C2494   1.468       .  S
C61          C62   1.540       .  S
C61          C67   1.540       .  S
C61          C65   1.548       .  S
C61        C2225   1.535       .  S
C62          H69   1.085       .  S
C62          C63   1.366       .  D
C63          C64   1.536       .  S
C63        C2434   1.492       .  S
C64          C68   1.534       .  S
C64          C66   1.538       .  S
C64          H70   1.106       .  S
C65          H71   1.080       .  S
C65          C66   1.371       .  D
C66        C2305   1.492       .  S
C67          H72   1.086       .  S
C67          C68   1.364       .  D
C68        C2274   1.477       .  S
In73         O75   2.268       .  S
In73         O76   2.242       .  S
In73         O84   2.236       .  S
In73         O78   2.258       .  S
In73         O80   2.254       .  S
In73         O81   2.264       .  S
In73         O82   2.257       .  S
In73         O85   2.245       .  S
C74          O80   1.260       .  A
C74          O82   1.258       .  A
C74        C2185   1.483       .  S
O75          C83   1.261       .  A
O76          C83   1.256       .  A
C77          O84   1.263       .  A
C77          O78   1.265       .  A
C77        C2254   1.484       .  S
C79          O81   1.263       .  A
C79          O85   1.260       .  A
C79        C2205   1.486       .  S
C83        C2165   1.479       .  S
In86         O88   2.278       .  S
In86         O89   2.219       .  S
In86         O97   2.267       .  S
In86         O91   2.232       .  S
In86         O93   2.238       .  S
In86         O94   2.264       .  S
In86         O95   2.256       .  S
In86         O98   2.244       .  S
C87          O93   1.261       .  A
C87          O95   1.263       .  A
C87        C2145   1.481       .  S
O88          C96   1.263       .  A
O89          C96   1.257       .  A
C90          O97   1.262       .  A
C90          O91   1.258       .  A
C90        C2134   1.483       .  S
C92          O94   1.263       .  A
C92          O98   1.260       .  A
C92        C2214   1.486       .  S
C96        C2105   1.481       .  S
In99        O101   2.249       .  S
In99        O102   2.248       .  S
In99        O110   2.262       .  S
In99        O104   2.235       .  S
In99        O106   2.252       .  S
In99        O107   2.260       .  S
In99        O108   2.252       .  S
In99        O111   2.252       .  S
C100        O106   1.261       .  A
C100        O108   1.261       .  A
C100       C2194   1.483       .  S
O101        C109   1.260       .  A
O102        C109   1.261       .  A
C103        O110   1.262       .  A
C103        O104   1.260       .  A
C103       C2065   1.482       .  S
C105        O107   1.259       .  A
C105        O111   1.258       .  A
C105       C2085   1.482       .  S
C109       C2054   1.481       .  S
In112       O114   2.255       .  S
In112       O115   2.234       .  S
In112       O123   2.259       .  S
In112       O117   2.239       .  S
In112       O119   2.263       .  S
In112       O120   2.251       .  S
In112       O121   2.248       .  S
In112       O124   2.253       .  S
C113        O119   1.261       .  A
C113        O121   1.259       .  A
C113       C2025   1.483       .  S
O114        C122   1.261       .  A
O115        C122   1.259       .  A
C116        O123   1.262       .  A
C116        O117   1.261       .  A
C116       C2454   1.483       .  S
C118        O120   1.260       .  A
C118        O124   1.262       .  A
C118       C2094   1.483       .  S
C122       C2014   1.475       .  S
In125       O127   2.244       .  S
In125       O128   2.271       .  S
In125       O136   2.254       .  S
In125       O130   2.248       .  S
In125       O132   2.257       .  S
In125       O133   2.270       .  S
In125       O134   2.254       .  S
In125       O137   2.243       .  S
C126        O132   1.261       .  A
C126        O134   1.261       .  A
C126       C2034   1.486       .  S
O127        C135   1.259       .  A
O128        C135   1.263       .  A
C129        O136   1.262       .  A
C129        O130   1.262       .  A
C129       C1974   1.484       .  S
C131        O133   1.263       .  A
C131        O137   1.260       .  A
C131       C1985   1.486       .  S
C135       C1945   1.487       .  S
In138       O140   2.272       .  S
In138       O141   2.271       .  S
In138       O149   2.232       .  S
In138       O143   2.280       .  S
In138       O145   2.251       .  S
In138       O146   2.296       .  S
In138       O147   2.252       .  S
In138       O150   2.239       .  S
C139        O145   1.259       .  A
C139        O147   1.259       .  A
C139       C2154   1.480       .  S
O140        C148   1.260       .  A
O141        C148   1.260       .  A
C142        O149   1.261       .  A
C142        O143   1.267       .  A
C142       C2325   1.490       .  S
C144        O146   1.264       .  A
C144        O150   1.256       .  A
C144       C1994   1.491       .  S
C148       C1934   1.492       .  S
In151       O153   2.223       .  S
In151       O154   2.268       .  S
In151       O162   2.257       .  S
In151       O156   2.230       .  S
In151       O158   2.250       .  S
In151       O159   2.253       .  S
In151       O160   2.257       .  S
In151       O163   2.230       .  S
C152        O158   1.260       .  A
C152        O160   1.261       .  A
C152       C1894   1.484       .  S
O153        C161   1.258       .  A
O154        C161   1.263       .  A
C155        O162   1.262       .  A
C155        O156   1.262       .  A
C155       C1865   1.481       .  S
C157        O159   1.263       .  A
C157        O163   1.259       .  A
C157       C2005   1.479       .  S
C161       C1905   1.480       .  S
In164       O166   2.239       .  S
In164       O167   2.267       .  S
In164       O175   2.268       .  S
In164       O169   2.236       .  S
In164       O171   2.239       .  S
In164       O172   2.260       .  S
In164       O173   2.257       .  S
In164       O176   2.227       .  S
C165        O171   1.258       .  A
C165        O173   1.260       .  A
C165       C1845   1.479       .  S
O166        C174   1.259       .  A
O167        C174   1.261       .  A
C168        O175   1.263       .  A
C168        O169   1.258       .  A
C168       C1825   1.484       .  S
C170        O172   1.262       .  A
C170        O176   1.259       .  A
C170       C2114   1.478       .  S
C174       C1914   1.483       .  S
In177       O179   2.237       .  S
In177       O180   2.272       .  S
In177       O188   2.256       .  S
In177       O182   2.255       .  S
In177       O184   2.250       .  S
In177       O185   2.289       .  S
In177       O186   2.250       .  S
In177       O189   2.232       .  S
C178        O184   1.262       .  A
C178        O186   1.261       .  A
C178       C1885   1.483       .  S
O179        C187   1.259       .  A
O180        C187   1.265       .  A
C181        O188   1.260       .  A
C181        O182   1.259       .  A
C181       C1785   1.479       .  S
C183        O185   1.264       .  A
C183        O189   1.257       .  A
C183       C1954   1.487       .  S
C187       C1805   1.487       .  S
In190       O192   2.252       .  S
In190       O193   2.268       .  S
In190       O201   2.272       .  S
In190       O195   2.228       .  S
In190       O197   2.234       .  S
In190       O198   2.251       .  S
In190       O199   2.257       .  S
In190       O202   2.268       .  S
C191        O197   1.259       .  A
C191        O199   1.262       .  A
C191       C1765   1.480       .  S
O192        C200   1.259       .  A
O193        C200   1.262       .  A
C194        O201   1.263       .  A
C194        O195   1.258       .  A
C194       C1745   1.482       .  S
C196        O198   1.258       .  A
C196        O202   1.262       .  A
C196       C2174   1.484       .  S
C200       C1814   1.487       .  S
In203       O205   2.242       .  S
In203       O206   2.277       .  S
In203       O214   2.272       .  S
In203       O208   2.218       .  S
In203       O210   2.247       .  S
In203       O211   2.284       .  S
In203       O212   2.254       .  S
In203       O215   2.242       .  S
C204        O210   1.257       .  A
C204        O212   1.261       .  A
C204       C1854   1.480       .  S
O205        C213   1.258       .  A
O206        C213   1.262       .  A
C207        O214   1.265       .  A
C207        O208   1.259       .  A
C207       C1714   1.482       .  S
C209        O211   1.264       .  A
C209        O215   1.258       .  A
C209       C1925   1.491       .  S
C213       C1734   1.486       .  S
In216       O218   2.242       .  S
In216       O219   2.260       .  S
In216       O227   2.274       .  S
In216       O221   2.234       .  S
In216       O223   2.238       .  S
In216       O224   2.264       .  S
In216       O225   2.264       .  S
In216       O228   2.236       .  S
C217        O223   1.259       .  A
C217        O225   1.261       .  A
C217       C1774   1.482       .  S
O218        C226   1.259       .  A
O219        C226   1.261       .  A
C220        O227   1.263       .  A
C220        O221   1.259       .  A
C220       C1694   1.486       .  S
C222        O224   1.260       .  A
C222        O228   1.258       .  A
C222       C2045   1.481       .  S
C226       C1725   1.483       .  S
C229        C230   1.542       .  S
C229        C235   1.549       .  S
C229        C233   1.547       .  S
C229       C1605   1.538       .  S
C230        H237   1.086       .  S
C230        C231   1.367       .  D
C231        C232   1.531       .  S
C231       C1665   1.478       .  S
C232        C236   1.531       .  S
C232        C234   1.534       .  S
C232        H238   1.105       .  S
C233        H239   1.079       .  S
C233        C234   1.367       .  D
C234       C1645   1.487       .  S
C235        H240   1.086       .  S
C235        C236   1.368       .  D
C236       C1634   1.494       .  S
C241        C242   1.541       .  S
C241        C247   1.546       .  S
C241        C245   1.537       .  S
C241       C1754   1.530       .  S
C242        H249   1.085       .  S
C242        C243   1.370       .  D
C243        C244   1.541       .  S
C243       C1565   1.498       .  S
C244        C248   1.533       .  S
C244        C246   1.532       .  S
C244        H250   1.108       .  S
C245        H251   1.087       .  S
C245        C246   1.361       .  D
C246       C1594   1.468       .  S
C247        H252   1.082       .  S
C247        C248   1.365       .  D
C248       C1674   1.472       .  S
C253        C254   1.545       .  S
C253        C259   1.544       .  S
C253        C257   1.538       .  S
C253       C1505   1.536       .  S
C254        H261   1.083       .  S
C254        C255   1.370       .  D
C255        C256   1.541       .  S
C255       C1545   1.481       .  S
C256        C260   1.536       .  S
C256        C258   1.539       .  S
C256        H262   1.107       .  S
C257        H263   1.086       .  S
C257        C258   1.367       .  D
C258       C1625   1.499       .  S
C259        H264   1.085       .  S
C259        C260   1.366       .  D
C260       C1534   1.488       .  S
C265        C266   1.547       .  S
C265        C271   1.536       .  S
C265        C269   1.546       .  S
C265       C1705   1.536       .  S
C266        H273   1.085       .  S
C266        C267   1.366       .  D
C267        C268   1.538       .  S
C267       C1485   1.494       .  S
C268        C272   1.539       .  S
C268        C270   1.538       .  S
C268        H274   1.109       .  S
C269        H275   1.080       .  S
C269        C270   1.367       .  D
C270       C1574   1.487       .  S
C271        H276   1.086       .  S
C271        C272   1.366       .  D
C272       C1554   1.482       .  S
C277        C278   1.533       .  S
C277        C283   1.550       .  S
C277        C281   1.542       .  S
C277       C1874   1.530       .  S
C278        H285   1.087       .  S
C278        C279   1.360       .  D
C279        C280   1.535       .  S
C279       C1585   1.483       .  S
C280        C284   1.538       .  S
C280        C282   1.537       .  S
C280        H286   1.108       .  S
C281        H287   1.085       .  S
C281        C282   1.364       .  D
C282       C1494   1.493       .  S
C283        H288   1.084       .  S
C283        C284   1.376       .  D
C284       C1474   1.482       .  S
C289        C290   1.538       .  S
C289        C295   1.546       .  S
C289        C293   1.546       .  S
C289       C1445   1.538       .  S
C290        H297   1.086       .  S
C290        C291   1.368       .  D
C291        C292   1.537       .  S
C291       C1465   1.486       .  S
C292        C296   1.532       .  S
C292        C294   1.539       .  S
C292        H298   1.109       .  S
C293        H299   1.080       .  S
C293        C294   1.367       .  D
C294       C1525   1.491       .  S
C295        H300   1.086       .  S
C295        C296   1.365       .  D
C296       C1654   1.484       .  S
C301        C302   1.539       .  S
C301        C307   1.542       .  S
C301        C305   1.548       .  S
C301       C2125   1.536       .  S
C302        H309   1.086       .  S
C302        C303   1.367       .  D
C303        C304   1.533       .  S
C303       C1425   1.475       .  S
C304        C308   1.529       .  S
C304        C306   1.539       .  S
C304        H310   1.110       .  S
C305        H311   1.082       .  S
C305        C306   1.370       .  D
C306       C1414   1.490       .  S
C307        H312   1.087       .  S
C307        C308   1.358       .  D
C308       C1394   1.470       .  S
C313        C314   1.542       .  S
C313        C319   1.535       .  S
C313        C317   1.545       .  S
C313       C1325   1.530       .  S
C314        H321   1.085       .  S
C314        C315   1.364       .  D
C315        C316   1.537       .  S
C315       C1354   1.482       .  S
C316        C320   1.536       .  S
C316        C318   1.532       .  S
C316        H322   1.111       .  S
C317        H323   1.084       .  S
C317        C318   1.365       .  D
C318       C1374   1.475       .  S
C319        H324   1.086       .  S
C319        C320   1.366       .  D
C320       C1434   1.477       .  S
C325        C326   1.538       .  S
C325        C331   1.551       .  S
C325        C329   1.545       .  S
C325       C2074   1.534       .  S
C326        H333   1.086       .  S
C326        C327   1.365       .  D
C327        C328   1.535       .  S
C327       C1305   1.477       .  S
C328        C332   1.538       .  S
C328        C330   1.529       .  S
C328        H334   1.110       .  S
C329        H335   1.086       .  S
C329        C330   1.363       .  D
C330       C1285   1.474       .  S
C331        H336   1.080       .  S
C331        C332   1.368       .  D
C332       C1405   1.495       .  S
C337        C338   1.537       .  S
C337        C343   1.537       .  S
C337        C341   1.549       .  S
C337       C1245   1.534       .  S
C338        H345   1.086       .  S
C338        C339   1.366       .  D
C339        C340   1.541       .  S
C339       C1365   1.496       .  S
C340        C344   1.540       .  S
C340        C342   1.536       .  S
C340        H346   1.105       .  S
C341        H347   1.080       .  S
C341        C342   1.370       .  D
C342       C1265   1.492       .  S
C343        H348   1.086       .  S
C343        C344   1.364       .  D
C344       C1314   1.475       .  S
C349        C350   1.540       .  S
C349        C355   1.542       .  S
C349        C353   1.548       .  S
C349       C1965   1.536       .  S
C350        H357   1.086       .  S
C350        C351   1.370       .  D
C351        C352   1.536       .  S
C351       C1225   1.480       .  S
C352        C356   1.530       .  S
C352        C354   1.536       .  S
C352        H358   1.108       .  S
C353        H359   1.078       .  S
C353        C354   1.368       .  D
C354       C1385   1.490       .  S
C355        H360   1.086       .  S
C355        C356   1.362       .  D
C356       C1294   1.482       .  S
C361        C362   1.540       .  S
C361        C367   1.541       .  S
C361        C365   1.547       .  S
C361       C1214   1.531       .  S
C362        H369   1.086       .  S
C362        C363   1.365       .  D
C363        C364   1.533       .  S
C363       C1274   1.486       .  S
C364        C368   1.533       .  S
C364        C366   1.533       .  S
C364        H370   1.109       .  S
C365        H371   1.080       .  S
C365        C366   1.365       .  D
C366       C1345   1.484       .  S
C367        H372   1.086       .  S
C367        C368   1.365       .  D
C368       C1234   1.471       .  S
In373       O375   2.247       .  S
In373       O376   2.272       .  S
In373       O384   2.246       .  S
In373       O378   2.266       .  S
In373       O380   2.251       .  S
In373       O381   2.275       .  S
In373       O382   2.261       .  S
In373       O385   2.256       .  S
C374        O380   1.261       .  A
C374        O382   1.262       .  A
C374       C1194   1.486       .  S
O375        C383   1.257       .  A
O376        C383   1.262       .  A
C377        O384   1.260       .  A
C377        O378   1.262       .  A
C377       C1145   1.484       .  S
C379        O381   1.261       .  A
C379        O385   1.260       .  A
C379       C1165   1.489       .  S
C383       C1134   1.485       .  S
In386       O388   2.236       .  S
In386       O389   2.268       .  S
In386       O397   2.282       .  S
In386       O391   2.256       .  S
In386       O393   2.267       .  S
In386       O394   2.263       .  S
In386       O395   2.264       .  S
In386       O398   2.258       .  S
C387        O393   1.258       .  A
C387        O395   1.257       .  A
C387       C1105   1.486       .  S
O388        C396   1.261       .  A
O389        C396   1.263       .  A
C390        O397   1.262       .  A
C390        O391   1.260       .  A
C390       C1514   1.488       .  S
C392        O394   1.261       .  A
C392        O398   1.261       .  A
C392       C1174   1.485       .  S
C396       C1085   1.483       .  S
In399       O401   2.250       .  S
In399       O402   2.239       .  S
In399       O410   2.259       .  S
In399       O404   2.250       .  S
In399       O406   2.247       .  S
In399       O407   2.241       .  S
In399       O408   2.243       .  S
In399       O411   2.273       .  S
C400        O406   1.262       .  A
C400        O408   1.261       .  A
C400       C1045   1.480       .  S
O401        C409   1.261       .  A
O402        C409   1.258       .  A
C403        O410   1.261       .  A
C403        O404   1.260       .  A
C403       C1025   1.484       .  S
C405        O407   1.257       .  A
C405        O411   1.259       .  A
C405       C1074   1.483       .  S
C409       C1005   1.476       .  S
In412       O414   2.242       .  S
In412       O415   2.259       .  S
In412       O423   2.249       .  S
In412       O417   2.249       .  S
In412       O419   2.258       .  S
In412       O420   2.263       .  S
In412       O421   2.259       .  S
In412       O424   2.243       .  S
C413        O419   1.260       .  A
C413        O421   1.260       .  A
C413       C1185   1.485       .  S
O414        C422   1.258       .  A
O415        C422   1.260       .  A
C416        O423   1.261       .  A
C416        O417   1.263       .  A
C416       C1614   1.483       .  S
C418        O420   1.261       .  A
C418        O424   1.258       .  A
C418       C1065   1.481       .  S
C422        C994   1.480       .  S
In425       O427   2.244       .  S
In425       O428   2.271       .  S
In425       O436   2.268       .  S
In425       O430   2.233       .  S
In425       O432   2.252       .  S
In425       O433   2.264       .  S
In425       O434   2.247       .  S
In425       O437   2.243       .  S
C426        O432   1.259       .  A
C426        O434   1.259       .  A
C426       C1054   1.479       .  S
O427        C435   1.258       .  A
O428        C435   1.260       .  A
C429        O436   1.264       .  A
C429        O430   1.260       .  A
C429       C1454   1.485       .  S
C431        O433   1.262       .  A
C431        O437   1.260       .  A
C431        C965   1.485       .  S
C435        C945   1.485       .  S
In438       O440   2.254       .  S
In438       O441   2.256       .  S
In438       O449   2.249       .  S
In438       O443   2.248       .  S
In438       O445   2.240       .  S
In438       O446   2.239       .  S
In438       O447   2.259       .  S
In438       O450   2.271       .  S
C439        O445   1.260       .  A
C439        O447   1.262       .  A
C439       C1114   1.482       .  S
O440        C448   1.258       .  A
O441        C448   1.259       .  A
C442        O449   1.261       .  A
C442        O443   1.262       .  A
C442        C925   1.482       .  S
C444        O446   1.259       .  A
C444        O450   1.262       .  A
C444        C974   1.484       .  S
C448        C905   1.481       .  S
In451       O453   2.236       .  S
In451       O454   2.258       .  S
In451       O462   2.250       .  S
In451       O456   2.232       .  S
In451       O458   2.250       .  S
In451       O459   2.247       .  S
In451       O460   2.240       .  S
In451       O463   2.234       .  S
C452        O458   1.261       .  A
C452        O460   1.259       .  A
C452        C865   1.479       .  S
O453        C461   1.260       .  A
O454        C461   1.262       .  A
C455        O462   1.263       .  A
C455        O456   1.261       .  A
C455       C1205   1.476       .  S
C457        O459   1.261       .  A
C457        O463   1.258       .  A
C457       C1014   1.475       .  S
C461        C885   1.481       .  S
In464       O466   2.241       .  S
In464       O467   2.265       .  S
In464       O475   2.270       .  S
In464       O469   2.247       .  S
In464       O471   2.245       .  S
In464       O472   2.276       .  S
In464       O473   2.248       .  S
In464       O476   2.222       .  S
C465        O471   1.261       .  A
C465        O473   1.261       .  A
C465        C854   1.480       .  S
O466        C474   1.259       .  A
O467        C474   1.260       .  A
C468        O475   1.262       .  A
C468        O469   1.258       .  A
C468       C2294   1.486       .  S
C470        O472   1.262       .  A
C470        O476   1.258       .  A
C470       C1094   1.481       .  S
C474        C894   1.483       .  S
In477       O479   2.248       .  S
In477       O480   2.274       .  S
In477       O488   2.274       .  S
In477       O482   2.228       .  S
In477       O484   2.240       .  S
In477       O485   2.272       .  S
In477       O486   2.257       .  S
In477       O489   2.248       .  S
C478        O484   1.258       .  A
C478        O486   1.260       .  A
C478        C814   1.480       .  S
O479        C487   1.260       .  A
O480        C487   1.263       .  A
C481        O488   1.265       .  A
C481        O482   1.258       .  A
C481       C1254   1.483       .  S
C483        O485   1.262       .  A
C483        O489   1.257       .  A
C483       C1125   1.485       .  S
C487        C825   1.488       .  S
In490       O492   2.255       .  S
In490       O493   2.269       .  S
In490       O501   2.282       .  S
In490       O495   2.239       .  S
In490       O497   2.244       .  S
In490       O498   2.265       .  S
In490       O499   2.257       .  S
In490       O502   2.249       .  S
C491        O497   1.259       .  A
C491        O499   1.262       .  A
C491        C874   1.480       .  S
O492        C500   1.259       .  A
O493        C500   1.259       .  A
C494        O501   1.262       .  A
C494        O495   1.257       .  A
C494       C2394   1.486       .  S
C496        O498   1.262       .  A
C496        O502   1.259       .  A
C496        C954   1.486       .  S
C500        C834   1.486       .  S
In503       O505   2.243       .  S
In503       O506   2.264       .  S
In503       O514   2.265       .  S
In503       O508   2.235       .  S
In503       O510   2.250       .  S
In503       O511   2.258       .  S
In503       O512   2.258       .  S
In503       O515   2.232       .  S
C504        O510   1.259       .  A
C504        O512   1.260       .  A
C504        C805   1.482       .  S
O505        C513   1.259       .  A
O506        C513   1.261       .  A
C507        O514   1.263       .  A
C507        O508   1.260       .  A
C507       C2234   1.484       .  S
C509        O511   1.262       .  A
C509        O515   1.259       .  A
C509        C985   1.477       .  S
C513        C785   1.483       .  S
In516       O518   2.251       .  S
In516       O519   2.266       .  S
In516       O527   2.263       .  S
In516       O521   2.230       .  S
In516       O523   2.248       .  S
In516       O524   2.251       .  S
In516       O525   2.253       .  S
In516       O528   2.253       .  S
C517        O523   1.258       .  A
C517        O525   1.260       .  A
C517        C845   1.480       .  S
O518        C526   1.259       .  A
O519        C526   1.260       .  A
C520        O527   1.263       .  A
C520        O521   1.259       .  A
C520       C1334   1.481       .  S
C522        O524   1.260       .  A
C522        O528   1.260       .  A
C522        C914   1.481       .  S
C526        C794   1.485       .  S
C529        C530   1.548       .  S
C529        C535   1.536       .  S
C529        C533   1.540       .  S
C529        C934   1.528       .  S
C530        H537   1.083       .  S
C530        C531   1.370       .  D
C531        C532   1.535       .  S
C531        C765   1.472       .  S
C532        C536   1.535       .  S
C532        C534   1.537       .  S
C532        H538   1.109       .  S
C533        H539   1.085       .  S
C533        C534   1.365       .  D
C534        C754   1.490       .  S
C535        H540   1.086       .  S
C535        C536   1.363       .  D
C536        C725   1.485       .  S
C541        C542   1.539       .  S
C541        C547   1.538       .  S
C541        C545   1.553       .  S
C541       C1834   1.533       .  S
C542        H549   1.086       .  S
C542        C543   1.360       .  D
C543        C544   1.533       .  S
C543        C694   1.480       .  S
C544        C548   1.538       .  S
C544        C546   1.535       .  S
C544        H550   1.109       .  S
C545        H551   1.081       .  S
C545        C546   1.369       .  D
C546        C705   1.490       .  S
C547        H552   1.086       .  S
C547        C548   1.368       .  D
C548        C774   1.484       .  S
C553        C554   1.539       .  S
C553        C559   1.553       .  S
C553        C557   1.543       .  S
C553       C1034   1.535       .  S
C554        H561   1.086       .  S
C554        C555   1.364       .  D
C555        C556   1.532       .  S
C555        C665   1.474       .  S
C556        C560   1.536       .  S
C556        C558   1.535       .  S
C556        H562   1.107       .  S
C557        H563   1.086       .  S
C557        C558   1.364       .  D
C558        C654   1.485       .  S
C559        H564   1.081       .  S
C559        C560   1.370       .  D
C560        C745   1.495       .  S
C565        C566   1.539       .  S
C565        C571   1.548       .  S
C565        C569   1.540       .  S
C565       C1794   1.528       .  S
C566        H573   1.087       .  S
C566        C567   1.362       .  D
C567        C568   1.533       .  S
C567        C714   1.480       .  S
C568        C572   1.540       .  S
C568        C570   1.532       .  S
C568        H574   1.110       .  S
C569        H575   1.086       .  S
C569        C570   1.362       .  D
C570        C634   1.479       .  S
C571        H576   1.082       .  S
C571        C572   1.372       .  D
C572        C674   1.484       .  S
C577        C578   1.537       .  S
C577        C583   1.538       .  S
C577        C581   1.550       .  S
C577       C1154   1.539       .  S
C578        H585   1.086       .  S
C578        C579   1.366       .  D
C579        C580   1.540       .  S
C579        C605   1.484       .  S
C580        C584   1.542       .  S
C580        C582   1.537       .  S
C580        H586   1.106       .  S
C581        H587   1.080       .  S
C581        C582   1.371       .  D
C582        C734   1.492       .  S
C583        H588   1.085       .  S
C583        C584   1.367       .  D
C584        C645   1.499       .  S
C589        C590   1.540       .  S
C589        C595   1.553       .  S
C589        C593   1.547       .  S
C589       C1685   1.538       .  S
C590        H597   1.086       .  S
C590        C591   1.362       .  D
C591        C592   1.530       .  S
C591        C625   1.481       .  S
C592        C596   1.527       .  S
C592        C594   1.534       .  S
C592        H598   1.109       .  S
C593        H599   1.084       .  S
C593        C594   1.371       .  D
C594        C685   1.491       .  S
C595        H600   1.082       .  S
C595        C596   1.369       .  D
C596        C614   1.479       .  S
C601        C602   1.406       .  A
C601        C606   1.398       .  A
C601        H611   1.083       .  S
C602        C607   1.492       .  S
C602        C603   1.410       .  A
C603        C604   1.404       .  A
C603        F608   1.357       .  S
C604        C605   1.404       .  A
C604        H609   1.083       .  S
C605        C606   1.403       .  A
C606        F610   1.355       .  S
C607        C612   1.411       .  A
C607        C616   1.406       .  A
C612        C613   1.403       .  A
C612        F617   1.357       .  S
C613        C614   1.401       .  A
C613        H618   1.083       .  S
C614        C615   1.405       .  A
C615        C616   1.400       .  A
C615        F619   1.358       .  S
C616        H620   1.083       .  S
C621        C622   1.401       .  A
C621        C626   1.397       .  A
C621        H631   1.084       .  S
C622        C627   1.472       .  S
C622        C623   1.403       .  A
C623        C624   1.399       .  A
C623        F628   1.357       .  S
C624        C625   1.404       .  A
C624        H629   1.083       .  S
C625        C626   1.408       .  A
C626        F630   1.358       .  S
C627        C632   1.403       .  A
C627        C636   1.402       .  A
C632        C633   1.396       .  A
C632        F637   1.358       .  S
C633        C634   1.404       .  A
C633        H638   1.083       .  S
C634        C635   1.406       .  A
C635        C636   1.400       .  A
C635        F639   1.357       .  S
C636        H640   1.083       .  S
C641        C642   1.402       .  A
C641        C646   1.401       .  A
C641        H651   1.083       .  S
C642        C647   1.475       .  S
C642        C643   1.398       .  A
C643        C644   1.395       .  A
C643        F648   1.358       .  S
C644        C645   1.412       .  A
C644        H649   1.081       .  S
C645        C646   1.412       .  A
C646        F650   1.353       .  S
C647        C652   1.401       .  A
C647        C656   1.403       .  A
C652        C653   1.394       .  A
C652        F657   1.357       .  S
C653        C654   1.405       .  A
C653        H658   1.083       .  S
C654        C655   1.410       .  A
C655        C656   1.401       .  A
C655        F659   1.357       .  S
C656        H660   1.083       .  S
C661        C662   1.406       .  A
C661        C666   1.399       .  A
C661        H671   1.083       .  S
C662        C667   1.483       .  S
C662        C663   1.407       .  A
C663        C664   1.400       .  A
C663        F668   1.358       .  S
C664        C665   1.402       .  A
C664        H669   1.083       .  S
C665        C666   1.402       .  A
C666        F670   1.357       .  S
C667        C672   1.405       .  A
C667        C676   1.406       .  A
C672        C673   1.395       .  A
C672        F677   1.358       .  S
C673        C674   1.403       .  A
C673        H678   1.083       .  S
C674        C675   1.408       .  A
C675        C676   1.404       .  A
C675        F679   1.357       .  S
C676        H680   1.083       .  S
C681        C682   1.402       .  A
C681        C686   1.401       .  A
C681        H691   1.083       .  S
C682        C687   1.470       .  S
C682        C683   1.399       .  A
C683        C684   1.392       .  A
C683        F688   1.358       .  S
C684        C685   1.409       .  A
C684        H689   1.081       .  S
C685        C686   1.411       .  A
C686        F690   1.356       .  S
C687        C692   1.403       .  A
C687        C696   1.400       .  A
C692        C693   1.398       .  A
C692        F697   1.357       .  S
C693        C694   1.404       .  A
C693        H698   1.083       .  S
C694        C695   1.409       .  A
C695        C696   1.394       .  A
C695        F699   1.358       .  S
C696        H700   1.084       .  S
C701        C702   1.397       .  A
C701        C706   1.394       .  A
C701        H711   1.084       .  S
C702        C707   1.471       .  S
C702        C703   1.402       .  A
C703        C704   1.402       .  A
C703        F708   1.357       .  S
C704        C705   1.408       .  A
C704        H709   1.083       .  S
C705        C706   1.412       .  A
C706        F710   1.355       .  S
C707        C712   1.402       .  A
C707        C716   1.402       .  A
C712        C713   1.396       .  A
C712        F717   1.358       .  S
C713        C714   1.405       .  A
C713        H718   1.083       .  S
C714        C715   1.406       .  A
C715        C716   1.399       .  A
C715        F719   1.357       .  S
C716        H720   1.083       .  S
C721        C722   1.402       .  A
C721        C726   1.400       .  A
C721        H731   1.083       .  S
C722        C727   1.471       .  S
C722        C723   1.400       .  A
C723        C724   1.392       .  A
C723        F728   1.358       .  S
C724        C725   1.407       .  A
C724        H729   1.083       .  S
C725        C726   1.409       .  A
C726        F730   1.356       .  S
C727        C732   1.399       .  A
C727        C736   1.401       .  A
C732        C733   1.394       .  A
C732        F737   1.358       .  S
C733        C734   1.409       .  A
C733        H738   1.081       .  S
C734        C735   1.412       .  A
C735        C736   1.399       .  A
C735        F739   1.357       .  S
C736        H740   1.083       .  S
C741        C742   1.402       .  A
C741        C746   1.399       .  A
C741        H751   1.083       .  S
C742        C747   1.482       .  S
C742        C743   1.404       .  A
C743        C744   1.398       .  A
C743        F748   1.358       .  S
C744        C745   1.409       .  A
C744        H749   1.082       .  S
C745        C746   1.411       .  A
C746        F750   1.356       .  S
C747        C752   1.405       .  A
C747        C756   1.403       .  A
C752        C753   1.397       .  A
C752        F757   1.358       .  S
C753        C754   1.406       .  A
C753        H758   1.082       .  S
C754        C755   1.410       .  A
C755        C756   1.400       .  A
C755        F759   1.357       .  S
C756        H760   1.083       .  S
C761        C762   1.406       .  A
C761        C766   1.401       .  A
C761        H771   1.083       .  S
C762        C767   1.485       .  S
C762        C763   1.408       .  A
C763        C764   1.397       .  A
C763        F768   1.357       .  S
C764        C765   1.399       .  A
C764        H769   1.084       .  S
C765        C766   1.404       .  A
C766        F770   1.358       .  S
C767        C772   1.408       .  A
C767        C776   1.404       .  A
C772        C773   1.404       .  A
C772        F777   1.357       .  S
C773        C774   1.406       .  A
C773        H778   1.083       .  S
C774        C775   1.405       .  A
C775        C776   1.394       .  A
C775        F779   1.357       .  S
C776        H780   1.083       .  S
C781        C782   1.403       .  A
C781        C786   1.397       .  A
C781        H791   1.083       .  S
C782        C787   1.484       .  S
C782        C783   1.406       .  A
C783        C784   1.403       .  A
C783        F788   1.357       .  S
C784        C785   1.407       .  A
C784        H789   1.083       .  S
C785        C786   1.408       .  A
C786        F790   1.357       .  S
C787        C792   1.406       .  A
C787        C796   1.404       .  A
C792        C793   1.398   1_556  A
C792        F797   1.358       .  S
C793        C794   1.406       .  A
C793        H798   1.083       .  S
C794        C795   1.410       .  A
C795        C796   1.403   1_554  A
C795        F799   1.357       .  S
C796        H800   1.083       .  S
C801        C802   1.405       .  A
C801        C806   1.399       .  A
C801        H811   1.083   1_556  S
C802        C807   1.486       .  S
C802        C803   1.407       .  A
C803        C804   1.398       .  A
C803        F808   1.358       .  S
C804        C805   1.405       .  A
C804        H809   1.083       .  S
C805        C806   1.408       .  A
C806        F810   1.357       .  S
C807        C812   1.406   1_556  A
C807        C816   1.406       .  A
C812        C813   1.397       .  A
C812        F817   1.357       .  S
C813        C814   1.405       .  A
C813        H818   1.083       .  S
C814        C815   1.407   1_554  A
C815        C816   1.400       .  A
C815        F819   1.357       .  S
C816        H820   1.083       .  S
C821        C822   1.403   1_554  A
C821        C826   1.399       .  A
C821        H831   1.084       .  S
C822        C827   1.486       .  S
C822        C823   1.406       .  A
C823        C824   1.405   1_556  A
C823        F828   1.357       .  S
C824        C825   1.408       .  A
C824        H829   1.083       .  S
C825        C826   1.409       .  A
C826        F830   1.357       .  S
C827        C832   1.405       .  A
C827        C836   1.405       .  A
C832        C833   1.399       .  A
C832        F837   1.357       .  S
C833        C834   1.406       .  A
C833        H838   1.083       .  S
C834        C835   1.411       .  A
C835        C836   1.404       .  A
C835        F839   1.357       .  S
C836        H840   1.083       .  S
C841        C842   1.405   1_554  A
C841        C846   1.399       .  A
C841        H851   1.083       .  S
C842        C847   1.487       .  S
C842        C843   1.408       .  A
C843        C844   1.398       .  A
C843        F848   1.358       .  S
C844        C845   1.404   1_556  A
C844        H849   1.083       .  S
C845        C846   1.408       .  A
C846        F850   1.357       .  S
C847        C852   1.408       .  A
C847        C856   1.405       .  A
C852        C853   1.400       .  A
C852        F857   1.357   1_556  S
C853        C854   1.406       .  A
C853        H858   1.083       .  S
C854        C855   1.407       .  A
C855        C856   1.397       .  A
C855        F859   1.357       .  S
C856        H860   1.083       .  S
C861        C862   1.404       .  A
C861        C866   1.398       .  A
C861        H871   1.083       .  S
C862        C867   1.485       .  S
C862        C863   1.408   1_556  A
C863        C864   1.398       .  A
C863        F868   1.357       .  S
C864        C865   1.404       .  A
C864        H869   1.083       .  S
C865        C866   1.408   1_554  A
C866        F870   1.358       .  S
C867        C872   1.407       .  A
C867        C876   1.405       .  A
C872        C873   1.399       .  A
C872        F877   1.358       .  S
C873        C874   1.406       .  A
C873        H878   1.083       .  S
C874        C875   1.407       .  A
C875        C876   1.398       .  A
C875        F879   1.357       .  S
C876        H880   1.083   1_556  S
C881        C882   1.404       .  A
C881        C886   1.395   1_556  A
C881        H891   1.083       .  S
C882        C887   1.487       .  S
C882        C883   1.408       .  A
C883        C884   1.403   1_556  A
C883        F888   1.357       .  S
C884        C885   1.407       .  A
C884        H889   1.083       .  S
C885        C886   1.407       .  A
C886        F890   1.357       .  S
C887        C892   1.407       .  A
C887        C896   1.406       .  A
C892        C893   1.395       .  A
C892        F897   1.358       .  S
C893        C894   1.404       .  A
C893        H898   1.083       .  S
C894        C895   1.410       .  A
C895        C896   1.404       .  A
C895        F899   1.357       .  S
C896        H900   1.083       .  S
C901        C902   1.405       .  A
C901        C906   1.399       .  A
C901        H911   1.083       .  S
C902        C907   1.487       .  S
C902        C903   1.408       .  A
C903        C904   1.399       .  A
C903        F908   1.357   1_554  S
C904        C905   1.405       .  A
C904        H909   1.083   1_554  S
C905        C906   1.408       .  A
C906        F910   1.357       .  S
C907        C912   1.408       .  A
C907        C916   1.405       .  A
C912        C913   1.399       .  A
C912        F917   1.358       .  S
C913        C914   1.404       .  A
C913        H918   1.083       .  S
C914        C915   1.408       .  A
C915        C916   1.400       .  A
C915        F919   1.357       .  S
C916        H920   1.083       .  S
C921        C922   1.404       .  A
C921        C926   1.398       .  A
C921        H931   1.084       .  S
C922        C927   1.479       .  S
C922        C923   1.403       .  A
C923        C924   1.400       .  A
C923        F928   1.357       .  S
C924        C925   1.407       .  A
C924        H929   1.083       .  S
C925        C926   1.409       .  A
C926        F930   1.358       .  S
C927        C932   1.407       .  A
C927        C936   1.396       .  A
C932        C933   1.406       .  A
C932        F937   1.357       .  S
C933        C934   1.410       .  A
C933        H938   1.079       .  S
C934        C935   1.415       .  A
C935        C936   1.390       .  A
C935        F939   1.358       .  S
C936        H940   1.084       .  S
C941        C942   1.407       .  A
C941        C946   1.405       .  A
C941        H951   1.083       .  S
C942        C947   1.492       .  S
C942        C943   1.408       .  A
C943        C944   1.396       .  A
C943        F948   1.358       .  S
C944        C945   1.404       .  A
C944        H949   1.083       .  S
C945        C946   1.410       .  A
C946        F950   1.357       .  S
C947        C952   1.408   1_455  A
C947        C956   1.406       .  A
C952        C953   1.404       .  A
C952        F957   1.357       .  S
C953        C954   1.407       .  A
C953        H958   1.083       .  S
C954        C955   1.408       .  A
C955        C956   1.397   1_655  A
C955        F959   1.358       .  S
C956        H960   1.083       .  S
C961        C962   1.405       .  A
C961        C966   1.404       .  A
C961        H971   1.083       .  S
C962        C967   1.486       .  S
C962        C963   1.406       .  A
C963        C964   1.397       .  A
C963        F968   1.358       .  S
C964        C965   1.405       .  A
C964        H969   1.083       .  S
C965        C966   1.410       .  A
C966        F970   1.357       .  S
C967        C972   1.406       .  A
C967        C976   1.405       .  A
C972        C973   1.396   1_556  A
C972        F977   1.358   1_556  S
C973        C974   1.405       .  A
C973        H978   1.083       .  S
C974        C975   1.410   1_554  A
C975        C976   1.404       .  A
C975        F979   1.357       .  S
C976        H980   1.083       .  S
C981        C982   1.404       .  A
C981        C986   1.401       .  A
C981        H991   1.083       .  S
C982        C987   1.478   1_545  S
C982        C983   1.404       .  A
C983        C984   1.394       .  A
C983        F988   1.358       .  S
C984        C985   1.404       .  A
C984        H989   1.083       .  S
C985        C986   1.409       .  A
C986        F990   1.357       .  S
C987        C992   1.405       .  A
C987        C996   1.402       .  A
C992        C993   1.400       .  A
C992        F997   1.358       .  S
C993        C994   1.406       .  A
C993        H998   1.083       .  S
C994        C995   1.409       .  A
C995        C996   1.396       .  A
C995        F999   1.357       .  S
C996       H1000   1.083       .  S
C1001      C1002   1.405       .  A
C1001      C1006   1.397       .  A
C1001      H1011   1.083       .  S
C1002      C1007   1.483       .  S
C1002      C1003   1.407       .  A
C1003      C1004   1.397       .  A
C1003      F1008   1.357       .  S
C1004      C1005   1.404       .  A
C1004      H1009   1.083       .  S
C1005      C1006   1.407       .  A
C1006      F1010   1.358       .  S
C1007      C1012   1.408   1_455  A
C1007      C1016   1.404   1_455  A
C1012      C1013   1.397       .  A
C1012      F1017   1.357   1_655  S
C1013      C1014   1.404       .  A
C1013      H1018   1.083       .  S
C1014      C1015   1.407       .  A
C1015      C1016   1.396       .  A
C1015      F1019   1.358       .  S
C1016      H1020   1.083   1_655  S
C1021      C1022   1.406       .  A
C1021      C1026   1.397       .  A
C1021      H1031   1.083       .  S
C1022      C1027   1.489       .  S
C1022      C1023   1.407       .  A
C1023      C1024   1.402       .  A
C1023      F1028   1.357       .  S
C1024      C1025   1.407       .  A
C1024      H1029   1.083       .  S
C1025      C1026   1.408       .  A
C1026      F1030   1.358       .  S
C1027      C1032   1.405       .  A
C1027      C1036   1.404       .  A
C1032      C1033   1.397       .  A
C1032      F1037   1.358       .  S
C1033      C1034   1.410       .  A
C1033      H1038   1.078       .  S
C1034      C1035   1.414       .  A
C1035      C1036   1.402       .  A
C1035      F1039   1.358       .  S
C1036      H1040   1.083       .  S
C1041      C1042   1.405       .  A
C1041      C1046   1.397       .  A
C1041      H1051   1.083       .  S
C1042      C1047   1.486       .  S
C1042      C1043   1.408       .  A
C1043      C1044   1.399   1_556  A
C1043      F1048   1.358       .  S
C1044      C1045   1.405       .  A
C1044      H1049   1.083       .  S
C1045      C1046   1.408   1_554  A
C1046      F1050   1.357       .  S
C1047      C1052   1.408       .  A
C1047      C1056   1.405       .  A
C1052      C1053   1.399       .  A
C1052      F1057   1.358       .  S
C1053      C1054   1.405       .  A
C1053      H1058   1.083       .  S
C1054      C1055   1.407       .  A
C1055      C1056   1.397       .  A
C1055      F1059   1.357       .  S
C1056      H1060   1.083       .  S
C1061      C1062   1.403       .  A
C1061      C1066   1.400       .  A
C1061      H1071   1.083       .  S
C1062      C1067   1.483       .  S
C1062      C1063   1.406       .  A
C1063      C1064   1.399       .  A
C1063      F1068   1.357       .  S
C1064      C1065   1.404       .  A
C1064      H1069   1.083       .  S
C1065      C1066   1.409       .  A
C1066      F1070   1.358       .  S
C1067      C1072   1.407       .  A
C1067      C1076   1.402   1_556  A
C1072      C1073   1.404       .  A
C1072      F1077   1.358       .  S
C1073      C1074   1.408   1_556  A
C1073      H1078   1.083       .  S
C1074      C1075   1.408       .  A
C1075      C1076   1.395       .  A
C1075      F1079   1.357       .  S
C1076      H1080   1.083       .  S
C1081      C1082   1.404       .  A
C1081      C1086   1.394       .  A
C1081      H1091   1.083       .  S
C1082      C1087   1.488       .  S
C1082      C1083   1.408       .  A
C1083      C1084   1.406       .  A
C1083      F1088   1.357       .  S
C1084      C1085   1.408       .  A
C1084      H1089   1.083       .  S
C1085      C1086   1.406       .  A
C1086      F1090   1.357       .  S
C1087      C1092   1.406       .  A
C1087      C1096   1.408       .  A
C1092      C1093   1.392       .  A
C1092      F1097   1.358       .  S
C1093      C1094   1.403       .  A
C1093      H1098   1.083       .  S
C1094      C1095   1.409       .  A
C1095      C1096   1.407       .  A
C1095      F1099   1.357       .  S
C1096      H1100   1.083       .  S
C1101      C1102   1.406       .  A
C1101      C1106   1.400       .  A
C1101      H1111   1.083       .  S
C1102      C1107   1.490       .  S
C1102      C1103   1.408       .  A
C1103      C1104   1.401       .  A
C1103      F1108   1.357       .  S
C1104      C1105   1.407       .  A
C1104      H1109   1.083       .  S
C1105      C1106   1.408       .  A
C1106      F1110   1.357       .  S
C1107      C1112   1.407       .  A
C1107      C1116   1.407       .  A
C1112      C1113   1.397       .  A
C1112      F1117   1.357       .  S
C1113      C1114   1.405   1_556  A
C1113      H1118   1.083       .  S
C1114      C1115   1.408       .  A
C1115      C1116   1.402   1_554  A
C1115      F1119   1.357       .  S
C1116      H1120   1.083   1_556  S
C1121      C1122   1.404       .  A
C1121      C1126   1.401       .  A
C1121      H1131   1.083       .  S
C1122      C1127   1.486   1_545  S
C1122      C1123   1.407       .  A
C1123      C1124   1.401       .  A
C1123      F1128   1.357       .  S
C1124      C1125   1.405       .  A
C1124      H1129   1.083       .  S
C1125      C1126   1.410       .  A
C1126      F1130   1.358       .  S
C1127      C1132   1.406       .  A
C1127      C1136   1.403       .  A
C1132      C1133   1.402       .  A
C1132      F1137   1.357       .  S
C1133      C1134   1.406       .  A
C1133      H1138   1.083       .  S
C1134      C1135   1.411       .  A
C1135      C1136   1.400       .  A
C1135      F1139   1.358       .  S
C1136      H1140   1.083       .  S
C1141      C1142   1.406       .  A
C1141      C1146   1.403       .  A
C1141      H1151   1.083       .  S
C1142      C1147   1.490       .  S
C1142      C1143   1.408       .  A
C1143      C1144   1.399       .  A
C1143      F1148   1.358       .  S
C1144      C1145   1.405       .  A
C1144      H1149   1.083       .  S
C1145      C1146   1.408       .  A
C1146      F1150   1.357       .  S
C1147      C1152   1.405       .  A
C1147      C1156   1.403       .  A
C1152      C1153   1.401       .  A
C1152      F1157   1.358       .  S
C1153      C1154   1.412       .  A
C1153      H1158   1.077       .  S
C1154      C1155   1.414       .  A
C1155      C1156   1.401       .  A
C1155      F1159   1.358       .  S
C1156      H1160   1.083       .  S
C1161      C1162   1.406       .  A
C1161      C1166   1.405       .  A
C1161      H1171   1.083       .  S
C1162      C1167   1.489       .  S
C1162      C1163   1.406   1_556  A
C1163      C1164   1.399       .  A
C1163      F1168   1.357       .  S
C1164      C1165   1.406       .  A
C1164      H1169   1.083       .  S
C1165      C1166   1.411   1_554  A
C1166      F1170   1.357       .  S
C1167      C1172   1.407       .  A
C1167      C1176   1.406       .  A
C1172      C1173   1.401       .  A
C1172      F1177   1.357       .  S
C1173      C1174   1.405       .  A
C1173      H1178   1.083       .  S
C1174      C1175   1.409       .  A
C1175      C1176   1.403       .  A
C1175      F1179   1.357       .  S
C1176      H1180   1.083       .  S
C1181      C1182   1.406       .  A
C1181      C1186   1.400       .  A
C1181      H1191   1.083       .  S
C1182      C1187   1.490       .  S
C1182      C1183   1.408       .  A
C1183      C1184   1.401       .  A
C1183      F1188   1.357       .  S
C1184      C1185   1.406       .  A
C1184      H1189   1.083       .  S
C1185      C1186   1.409       .  A
C1186      F1190   1.357       .  S
C1187      C1192   1.408       .  A
C1187      C1196   1.405   1_556  A
C1192      C1193   1.401       .  A
C1192      F1197   1.357       .  S
C1193      C1194   1.406   1_556  A
C1193      H1198   1.083       .  S
C1194      C1195   1.409       .  A
C1195      C1196   1.400       .  A
C1195      F1199   1.357       .  S
C1196      H1200   1.083       .  S
C1201      C1202   1.403       .  A
C1201      C1206   1.396       .  A
C1201      H1211   1.083       .  S
C1202      C1207   1.480       .  S
C1202      C1203   1.406       .  A
C1203      C1204   1.399       .  A
C1203      F1208   1.357       .  S
C1204      C1205   1.405       .  A
C1204      H1209   1.083       .  S
C1205      C1206   1.408       .  A
C1206      F1210   1.358       .  S
C1207      C1212   1.402       .  A
C1207      C1216   1.402       .  A
C1212      C1213   1.395       .  A
C1212      F1217   1.358       .  S
C1213      C1214   1.413       .  A
C1213      H1218   1.075       .  S
C1214      C1215   1.413       .  A
C1215      C1216   1.399       .  A
C1215      F1219   1.358       .  S
C1216      H1220   1.083       .  S
C1221      C1222   1.404       .  A
C1221      C1226   1.401       .  A
C1221      H1231   1.083       .  S
C1222      C1227   1.480       .  S
C1222      C1223   1.406       .  A
C1223      C1224   1.397       .  A
C1223      F1228   1.358       .  S
C1224      C1225   1.403       .  A
C1224      H1229   1.084       .  S
C1225      C1226   1.406       .  A
C1226      F1230   1.357       .  S
C1227      C1232   1.406       .  A
C1227      C1236   1.406       .  A
C1232      C1233   1.396       .  A
C1232      F1237   1.357       .  S
C1233      C1234   1.400       .  A
C1233      H1238   1.083       .  S
C1234      C1235   1.403       .  A
C1235      C1236   1.400       .  A
C1235      F1239   1.358       .  S
C1236      H1240   1.083       .  S
C1241      C1242   1.401       .  A
C1241      C1246   1.398       .  A
C1241      H1251   1.083       .  S
C1242      C1247   1.482       .  S
C1242      C1243   1.404       .  A
C1243      C1244   1.400       .  A
C1243      F1248   1.358       .  S
C1244      C1245   1.413       .  A
C1244      H1249   1.076       .  S
C1245      C1246   1.414       .  A
C1246      F1250   1.358       .  S
C1247      C1252   1.406       .  A
C1247      C1256   1.402       .  A
C1252      C1253   1.403       .  A
C1252      F1257   1.357       .  S
C1253      C1254   1.406       .  A
C1253      H1258   1.083       .  S
C1254      C1255   1.410       .  A
C1255      C1256   1.397       .  A
C1255      F1259   1.358       .  S
C1256      H1260   1.084       .  S
C1261      C1262   1.400       .  A
C1261      C1266   1.398       .  A
C1261      H1271   1.084       .  S
C1262      C1267   1.474       .  S
C1262      C1263   1.402       .  A
C1263      C1264   1.396       .  A
C1263      F1268   1.357       .  S
C1264      C1265   1.408       .  A
C1264      H1269   1.082       .  S
C1265      C1266   1.412       .  A
C1266      F1270   1.354       .  S
C1267      C1272   1.403       .  A
C1267      C1276   1.401       .  A
C1272      C1273   1.396       .  A
C1272      F1277   1.358       .  S
C1273      C1274   1.406       .  A
C1273      H1278   1.082       .  S
C1274      C1275   1.409       .  A
C1275      C1276   1.398       .  A
C1275      F1279   1.357       .  S
C1276      H1280   1.083       .  S
C1281      C1282   1.403       .  A
C1281      C1286   1.397       .  A
C1281      H1291   1.084       .  S
C1282      C1287   1.473       .  S
C1282      C1283   1.403       .  A
C1283      C1284   1.399       .  A
C1283      F1288   1.357       .  S
C1284      C1285   1.403       .  A
C1284      H1289   1.084       .  S
C1285      C1286   1.404       .  A
C1286      F1290   1.358       .  S
C1287      C1292   1.402       .  A
C1287      C1296   1.402       .  A
C1292      C1293   1.395       .  A
C1292      F1297   1.358       .  S
C1293      C1294   1.404       .  A
C1293      H1298   1.083       .  S
C1294      C1295   1.408       .  A
C1295      C1296   1.400       .  A
C1295      F1299   1.357       .  S
C1296      H1300   1.083       .  S
C1301      C1302   1.405       .  A
C1301      C1306   1.395       .  A
C1301      H1311   1.083       .  S
C1302      C1307   1.488       .  S
C1302      C1303   1.411       .  A
C1303      C1304   1.403       .  A
C1303      F1308   1.357       .  S
C1304      C1305   1.402       .  A
C1304      H1309   1.083       .  S
C1305      C1306   1.402       .  A
C1306      F1310   1.356       .  S
C1307      C1312   1.411       .  A
C1307      C1316   1.406       .  A
C1312      C1313   1.400       .  A
C1312      F1317   1.357       .  S
C1313      C1314   1.401       .  A
C1313      H1318   1.083       .  S
C1314      C1315   1.401       .  A
C1315      C1316   1.397       .  A
C1315      F1319   1.355       .  S
C1316      H1320   1.083       .  S
C1321      C1322   1.401       .  A
C1321      C1326   1.399       .  A
C1321      H1331   1.083       .  S
C1322      C1327   1.479       .  S
C1322      C1323   1.403       .  A
C1323      C1324   1.395       .  A
C1323      F1328   1.358       .  S
C1324      C1325   1.411       .  A
C1324      H1329   1.083       .  S
C1325      C1326   1.414       .  A
C1326      F1330   1.356       .  S
C1327      C1332   1.405       .  A
C1327      C1336   1.404       .  A
C1332      C1333   1.395       .  A
C1332      F1337   1.358       .  S
C1333      C1334   1.405       .  A
C1333      H1338   1.083       .  S
C1334      C1335   1.409       .  A
C1335      C1336   1.402       .  A
C1335      F1339   1.357       .  S
C1336      H1340   1.083       .  S
C1341      C1342   1.401       .  A
C1341      C1346   1.399       .  A
C1341      H1351   1.083       .  S
C1342      C1347   1.469       .  S
C1342      C1343   1.400       .  A
C1343      C1344   1.392       .  A
C1343      F1348   1.358       .  S
C1344      C1345   1.407       .  A
C1344      H1349   1.082       .  S
C1345      C1346   1.408       .  A
C1346      F1350   1.356       .  S
C1347      C1352   1.403       .  A
C1347      C1356   1.399       .  A
C1352      C1353   1.397       .  A
C1352      F1357   1.358       .  S
C1353      C1354   1.404       .  A
C1353      H1358   1.083       .  S
C1354      C1355   1.410       .  A
C1355      C1356   1.396       .  A
C1355      F1359   1.357       .  S
C1356      H1360   1.083       .  S
C1361      C1362   1.406       .  A
C1361      C1366   1.402       .  A
C1361      H1371   1.083       .  S
C1362      C1367   1.490       .  S
C1362      C1363   1.406       .  A
C1363      C1364   1.395       .  A
C1363      F1368   1.358       .  S
C1364      C1365   1.409       .  A
C1364      H1369   1.082       .  S
C1365      C1366   1.410       .  A
C1366      F1370   1.356       .  S
C1367      C1372   1.411       .  A
C1367      C1376   1.407       .  A
C1372      C1373   1.403       .  A
C1372      F1377   1.357       .  S
C1373      C1374   1.402       .  A
C1373      H1378   1.083       .  S
C1374      C1375   1.402       .  A
C1375      C1376   1.394       .  A
C1375      F1379   1.358       .  S
C1376      H1380   1.083       .  S
C1381      C1382   1.404       .  A
C1381      C1386   1.400       .  A
C1381      H1391   1.083       .  S
C1382      C1387   1.483       .  S
C1382      C1383   1.406       .  A
C1383      C1384   1.393       .  A
C1383      F1388   1.358       .  S
C1384      C1385   1.407       .  A
C1384      H1389   1.082       .  S
C1385      C1386   1.409       .  A
C1386      F1390   1.357       .  S
C1387      C1392   1.409       .  A
C1387      C1396   1.405       .  A
C1392      C1393   1.402       .  A
C1392      F1397   1.357       .  S
C1393      C1394   1.401       .  A
C1393      H1398   1.083       .  S
C1394      C1395   1.402       .  A
C1395      C1396   1.392       .  A
C1395      F1399   1.358       .  S
C1396      H1400   1.083       .  S
C1401      C1402   1.401       .  A
C1401      C1406   1.399       .  A
C1401      H1411   1.084       .  S
C1402      C1407   1.478       .  S
C1402      C1403   1.402       .  A
C1403      C1404   1.396       .  A
C1403      F1408   1.357       .  S
C1404      C1405   1.407       .  A
C1404      H1409   1.079       .  S
C1405      C1406   1.415       .  A
C1406      F1410   1.356       .  S
C1407      C1412   1.404       .  A
C1407      C1416   1.401       .  A
C1412      C1413   1.401       .  A
C1412      F1417   1.357       .  S
C1413      C1414   1.409       .  A
C1413      H1418   1.083       .  S
C1414      C1415   1.410       .  A
C1415      C1416   1.394       .  A
C1415      F1419   1.355       .  S
C1416      H1420   1.084       .  S
C1421      C1422   1.407       .  A
C1421      C1426   1.400       .  A
C1421      H1431   1.083       .  S
C1422      C1427   1.486       .  S
C1422      C1423   1.409       .  A
C1423      C1424   1.398       .  A
C1423      F1428   1.357       .  S
C1424      C1425   1.401       .  A
C1424      H1429   1.083       .  S
C1425      C1426   1.403       .  A
C1426      F1430   1.357       .  S
C1427      C1432   1.409       .  A
C1427      C1436   1.406       .  A
C1432      C1433   1.398       .  A
C1432      F1437   1.357       .  S
C1433      C1434   1.400       .  A
C1433      H1438   1.083       .  S
C1434      C1435   1.405       .  A
C1435      C1436   1.400       .  A
C1435      F1439   1.358       .  S
C1436      H1440   1.083       .  S
C1441      C1442   1.401       .  A
C1441      C1446   1.400       .  A
C1441      H1451   1.083       .  S
C1442      C1447   1.483       .  S
C1442      C1443   1.404       .  A
C1443      C1444   1.399       .  A
C1443      F1448   1.358       .  S
C1444      C1445   1.411       .  A
C1444      H1449   1.083       .  S
C1445      C1446   1.416       .  A
C1446      F1450   1.355       .  S
C1447      C1452   1.407       .  A
C1447      C1456   1.402       .  A
C1452      C1453   1.404       .  A
C1452      F1457   1.357       .  S
C1453      C1454   1.407       .  A
C1453      H1458   1.083       .  S
C1454      C1455   1.410       .  A
C1455      C1456   1.396       .  A
C1455      F1459   1.358       .  S
C1456      H1460   1.084       .  S
C1461      C1462   1.404       .  A
C1461      C1466   1.403       .  A
C1461      H1471   1.083       .  S
C1462      C1467   1.482       .  S
C1462      C1463   1.405       .  A
C1463      C1464   1.400       .  A
C1463      F1468   1.358       .  S
C1464      C1465   1.405       .  A
C1464      H1469   1.084       .  S
C1465      C1466   1.407       .  A
C1466      F1470   1.357       .  S
C1467      C1472   1.403       .  A
C1467      C1476   1.406       .  A
C1472      C1473   1.397       .  A
C1472      F1477   1.357       .  S
C1473      C1474   1.403       .  A
C1473      H1478   1.084       .  S
C1474      C1475   1.407       .  A
C1475      C1476   1.406       .  A
C1475      F1479   1.357       .  S
C1476      H1480   1.083       .  S
C1481      C1482   1.401       .  A
C1481      C1486   1.400       .  A
C1481      H1491   1.083       .  S
C1482      C1487   1.479       .  S
C1482      C1483   1.404       .  A
C1483      C1484   1.400       .  A
C1483      F1488   1.357       .  S
C1484      C1485   1.406       .  A
C1484      H1489   1.080       .  S
C1485      C1486   1.413       .  A
C1486      F1490   1.357       .  S
C1487      C1492   1.402       .  A
C1487      C1496   1.403       .  A
C1492      C1493   1.396       .  A
C1492      F1497   1.358       .  S
C1493      C1494   1.406       .  A
C1493      H1498   1.082       .  S
C1494      C1495   1.412       .  A
C1495      C1496   1.403       .  A
C1495      F1499   1.357       .  S
C1496      H1500   1.083       .  S
C1501      C1502   1.402       .  A
C1501      C1506   1.394       .  A
C1501      H1511   1.083       .  S
C1502      C1507   1.497       .  S
C1502      C1503   1.411       .  A
C1503      C1504   1.410       .  A
C1503      F1508   1.357       .  S
C1504      C1505   1.412       .  A
C1504      H1509   1.079       .  S
C1505      C1506   1.414       .  A
C1506      F1510   1.358       .  S
C1507      C1512   1.411       .  A
C1507      C1516   1.408       .  A
C1512      C1513   1.400       .  A
C1512      F1517   1.358       .  S
C1513      C1514   1.403       .  A
C1513      H1518   1.083       .  S
C1514      C1515   1.409       .  A
C1515      C1516   1.407       .  A
C1515      F1519   1.357       .  S
C1516      H1520   1.083       .  S
C1521      C1522   1.400       .  A
C1521      C1526   1.399       .  A
C1521      H1531   1.084       .  S
C1522      C1527   1.475       .  S
C1522      C1523   1.402       .  A
C1523      C1524   1.399       .  A
C1523      F1528   1.357       .  S
C1524      C1525   1.406       .  A
C1524      H1529   1.083       .  S
C1525      C1526   1.413       .  A
C1526      F1530   1.357       .  S
C1527      C1532   1.401       .  A
C1527      C1536   1.403       .  A
C1532      C1533   1.394       .  A
C1532      F1537   1.358       .  S
C1533      C1534   1.406       .  A
C1533      H1538   1.082       .  S
C1534      C1535   1.410       .  A
C1535      C1536   1.403       .  A
C1535      F1539   1.357       .  S
C1536      H1540   1.083       .  S
C1541      C1542   1.404       .  A
C1541      C1546   1.399       .  A
C1541      H1551   1.083       .  S
C1542      C1547   1.486       .  S
C1542      C1543   1.409       .  A
C1543      C1544   1.403       .  A
C1543      F1548   1.358       .  S
C1544      C1545   1.404       .  A
C1544      H1549   1.083       .  S
C1545      C1546   1.403       .  A
C1546      F1550   1.356       .  S
C1547      C1552   1.407       .  A
C1547      C1556   1.406       .  A
C1552      C1553   1.398       .  A
C1552      F1557   1.357       .  S
C1553      C1554   1.401       .  A
C1553      H1558   1.081       .  S
C1554      C1555   1.407       .  A
C1555      C1556   1.403       .  A
C1555      F1559   1.357       .  S
C1556      H1560   1.083       .  S
C1561      C1562   1.400       .  A
C1561      C1566   1.396       .  A
C1561      H1571   1.084       .  S
C1562      C1567   1.478       .  S
C1562      C1563   1.403       .  A
C1563      C1564   1.399       .  A
C1563      F1568   1.357       .  S
C1564      C1565   1.411       .  A
C1564      H1569   1.082       .  S
C1565      C1566   1.414       .  A
C1566      F1570   1.354       .  S
C1567      C1572   1.404       .  A
C1567      C1576   1.402       .  A
C1572      C1573   1.398       .  A
C1572      F1577   1.357       .  S
C1573      C1574   1.405       .  A
C1573      H1578   1.083       .  S
C1574      C1575   1.411       .  A
C1575      C1576   1.397       .  A
C1575      F1579   1.357       .  S
C1576      H1580   1.084       .  S
C1581      C1582   1.405       .  A
C1581      C1586   1.401       .  A
C1581      H1591   1.083       .  S
C1582      C1587   1.478       .  S
C1582      C1583   1.404       .  A
C1583      C1584   1.389       .  A
C1583      F1588   1.358       .  S
C1584      C1585   1.405       .  A
C1584      H1589   1.082       .  S
C1585      C1586   1.407       .  A
C1586      F1590   1.357       .  S
C1587      C1592   1.408       .  A
C1587      C1596   1.404       .  A
C1592      C1593   1.402       .  A
C1592      F1597   1.357       .  S
C1593      C1594   1.401       .  A
C1593      H1598   1.083       .  S
C1594      C1595   1.401       .  A
C1595      C1596   1.390       .  A
C1595      F1599   1.358       .  S
C1596      H1600   1.083       .  S
C1601      C1602   1.403       .  A
C1601      C1606   1.400       .  A
C1601      H1611   1.083       .  S
C1602      C1607   1.488       .  S
C1602      C1603   1.404       .  A
C1603      C1604   1.400       .  A
C1603      F1608   1.358       .  S
C1604      C1605   1.414       .  A
C1604      H1609   1.075       .  S
C1605      C1606   1.412       .  A
C1606      F1610   1.357       .  S
C1607      C1612   1.407       .  A
C1607      C1616   1.405       .  A
C1612      C1613   1.397       .  A
C1612      F1617   1.357       .  S
C1613      C1614   1.404       .  A
C1613      H1618   1.083       .  S
C1614      C1615   1.410       .  A
C1615      C1616   1.402       .  A
C1615      F1619   1.358       .  S
C1616      H1620   1.083       .  S
C1621      C1622   1.403       .  A
C1621      C1626   1.403       .  A
C1621      H1631   1.083       .  S
C1622      C1627   1.479       .  S
C1622      C1623   1.400       .  A
C1623      C1624   1.395       .  A
C1623      F1628   1.357       .  S
C1624      C1625   1.410       .  A
C1624      H1629   1.081       .  S
C1625      C1626   1.413       .  A
C1626      F1630   1.355       .  S
C1627      C1632   1.405       .  A
C1627      C1636   1.399       .  A
C1632      C1633   1.401       .  A
C1632      F1637   1.357       .  S
C1633      C1634   1.407       .  A
C1633      H1638   1.083       .  S
C1634      C1635   1.414       .  A
C1635      C1636   1.397       .  A
C1635      F1639   1.356       .  S
C1636      H1640   1.084       .  S
C1641      C1642   1.401       .  A
C1641      C1646   1.398       .  A
C1641      H1651   1.083       .  S
C1642      C1647   1.472       .  S
C1642      C1643   1.401       .  A
C1643      C1644   1.393       .  A
C1643      F1648   1.358       .  S
C1644      C1645   1.408       .  A
C1644      H1649   1.082       .  S
C1645      C1646   1.409       .  A
C1646      F1650   1.357       .  S
C1647      C1652   1.402       .  A
C1647      C1656   1.401       .  A
C1652      C1653   1.398       .  A
C1652      F1657   1.357       .  S
C1653      C1654   1.406       .  A
C1653      H1658   1.083       .  S
C1654      C1655   1.409       .  A
C1655      C1656   1.396       .  A
C1655      F1659   1.357       .  S
C1656      H1660   1.084       .  S
C1661      C1662   1.405       .  A
C1661      C1666   1.395       .  A
C1661      H1671   1.083       .  S
C1662      C1667   1.487       .  S
C1662      C1663   1.410       .  A
C1663      C1664   1.402       .  A
C1663      F1668   1.357       .  S
C1664      C1665   1.402       .  A
C1664      H1669   1.083       .  S
C1665      C1666   1.404       .  A
C1666      F1670   1.358       .  S
C1667      C1672   1.410       .  A
C1667      C1676   1.406       .  A
C1672      C1673   1.400       .  A
C1672      F1677   1.357       .  S
C1673      C1674   1.400       .  A
C1673      H1678   1.083       .  S
C1674      C1675   1.402       .  A
C1675      C1676   1.398       .  A
C1675      F1679   1.357       .  S
C1676      H1680   1.083       .  S
C1681      C1682   1.401       .  A
C1681      C1686   1.396       .  A
C1681      H1691   1.084       .  S
C1682      C1687   1.489       .  S
C1682      C1683   1.406       .  A
C1683      C1684   1.407       .  A
C1683      F1688   1.357       .  S
C1684      C1685   1.413       .  A
C1684      H1689   1.078       .  S
C1685      C1686   1.415       .  A
C1686      F1690   1.358       .  S
C1687      C1692   1.406       .  A
C1687      C1696   1.407       .  A
C1692      C1693   1.396       .  A
C1692      F1697   1.358       .  S
C1693      C1694   1.405       .  A
C1693      H1698   1.083       .  S
C1694      C1695   1.410       .  A
C1695      C1696   1.407       .  A
C1695      F1699   1.357       .  S
C1696      H1700   1.083       .  S
C1701      C1702   1.403       .  A
C1701      C1706   1.401       .  A
C1701      H1711   1.083       .  S
C1702      C1707   1.487       .  S
C1702      C1703   1.406       .  A
C1703      C1704   1.397       .  A
C1703      F1708   1.358       .  S
C1704      C1705   1.409       .  A
C1704      H1709   1.083       .  S
C1705      C1706   1.416       .  A
C1706      F1710   1.355       .  S
C1707      C1712   1.406       .  A
C1707      C1716   1.407       .  A
C1712      C1713   1.393       .  A
C1712      F1717   1.358       .  S
C1713      C1714   1.404       .  A
C1713      H1718   1.083       .  S
C1714      C1715   1.408       .  A
C1715      C1716   1.405       .  A
C1715      F1719   1.357       .  S
C1716      H1720   1.083       .  S
C1721      C1722   1.405       .  A
C1721      C1726   1.397       .  A
C1721      H1731   1.083       .  S
C1722      C1727   1.489       .  S
C1722      C1723   1.407       .  A
C1723      C1724   1.402       .  A
C1723      F1728   1.357       .  S
C1724      C1725   1.406       .  A
C1724      H1729   1.083       .  S
C1725      C1726   1.408       .  A
C1726      F1730   1.358       .  S
C1727      C1732   1.407       .  A
C1727      C1736   1.407       .  A
C1732      C1733   1.397       .  A
C1732      F1737   1.358       .  S
C1733      C1734   1.406       .  A
C1733      H1738   1.083       .  S
C1734      C1735   1.409       .  A
C1735      C1736   1.404       .  A
C1735      F1739   1.357       .  S
C1736      H1740   1.083       .  S
C1741      C1742   1.404       .  A
C1741      C1746   1.403       .  A
C1741      H1751   1.083       .  S
C1742      C1747   1.477       .  S
C1742      C1743   1.403       .  A
C1743      C1744   1.394       .  A
C1743      F1748   1.358       .  S
C1744      C1745   1.406       .  A
C1744      H1749   1.083       .  S
C1745      C1746   1.409       .  A
C1746      F1750   1.357       .  S
C1747      C1752   1.403       .  A
C1747      C1756   1.399       .  A
C1752      C1753   1.402       .  A
C1752      F1757   1.357       .  S
C1753      C1754   1.411       .  A
C1753      H1758   1.078       .  S
C1754      C1755   1.415       .  A
C1755      C1756   1.394       .  A
C1755      F1759   1.359       .  S
C1756      H1760   1.084       .  S
C1761      C1762   1.403       .  A
C1761      C1766   1.397       .  A
C1761      H1771   1.083       .  S
C1762      C1767   1.485       .  S
C1762      C1763   1.408       .  A
C1763      C1764   1.399       .  A
C1763      F1768   1.357       .  S
C1764      C1765   1.405       .  A
C1764      H1769   1.083       .  S
C1765      C1766   1.409       .  A
C1766      F1770   1.357       .  S
C1767      C1772   1.408       .  A
C1767      C1776   1.403       .  A
C1772      C1773   1.400       .  A
C1772      F1777   1.358       .  S
C1773      C1774   1.405       .  A
C1773      H1778   1.083       .  S
C1774      C1775   1.409       .  A
C1775      C1776   1.397       .  A
C1775      F1779   1.357       .  S
C1776      H1780   1.083       .  S
C1781      C1782   1.404       .  A
C1781      C1786   1.398       .  A
C1781      H1791   1.084       .  S
C1782      C1787   1.480       .  S
C1782      C1783   1.405       .  A
C1783      C1784   1.401       .  A
C1783      F1788   1.357       .  S
C1784      C1785   1.406       .  A
C1784      H1789   1.083       .  S
C1785      C1786   1.407       .  A
C1786      F1790   1.357       .  S
C1787      C1792   1.406       .  A
C1787      C1796   1.398       .  A
C1792      C1793   1.405       .  A
C1792      F1797   1.357       .  S
C1793      C1794   1.411       .  A
C1793      H1798   1.078       .  S
C1794      C1795   1.415       .  A
C1795      C1796   1.391       .  A
C1795      F1799   1.359       .  S
C1796      H1800   1.084       .  S
C1801      C1802   1.403       .  A
C1801      C1806   1.399       .  A
C1801      H1811   1.084       .  S
C1802      C1807   1.485       .  S
C1802      C1803   1.406       .  A
C1803      C1804   1.404       .  A
C1803      F1808   1.357       .  S
C1804      C1805   1.407       .  A
C1804      H1809   1.083       .  S
C1805      C1806   1.411       .  A
C1806      F1810   1.358       .  S
C1807      C1812   1.406       .  A
C1807      C1816   1.404       .  A
C1812      C1813   1.400       .  A
C1812      F1817   1.358       .  S
C1813      C1814   1.407       .  A
C1813      H1818   1.083       .  S
C1814      C1815   1.410       .  A
C1815      C1816   1.403       .  A
C1815      F1819   1.357       .  S
C1816      H1820   1.083       .  S
C1821      C1822   1.402       .  A
C1821      C1826   1.398       .  A
C1821      H1831   1.084       .  S
C1822      C1827   1.480       .  S
C1822      C1823   1.404       .  A
C1823      C1824   1.402       .  A
C1823      F1828   1.357       .  S
C1824      C1825   1.407       .  A
C1824      H1829   1.083       .  S
C1825      C1826   1.410       .  A
C1826      F1830   1.358       .  S
C1827      C1832   1.403       .  A
C1827      C1836   1.401       .  A
C1832      C1833   1.399       .  A
C1832      F1837   1.358       .  S
C1833      C1834   1.411       .  A
C1833      H1838   1.077       .  S
C1834      C1835   1.414       .  A
C1835      C1836   1.399       .  A
C1835      F1839   1.358       .  S
C1836      H1840   1.083       .  S
C1841      C1842   1.402       .  A
C1841      C1846   1.396       .  A
C1841      H1851   1.083       .  S
C1842      C1847   1.478       .  S
C1842      C1843   1.405       .  A
C1843      C1844   1.400       .  A
C1843      F1848   1.358       .  S
C1844      C1845   1.406       .  A
C1844      H1849   1.083       .  S
C1845      C1846   1.409       .  A
C1846      F1850   1.357       .  S
C1847      C1852   1.404       .  A
C1847      C1856   1.403       .  A
C1852      C1853   1.397       .  A
C1852      F1857   1.357       .  S
C1853      C1854   1.404       .  A
C1853      H1858   1.083       .  S
C1854      C1855   1.410       .  A
C1855      C1856   1.399       .  A
C1855      F1859   1.358       .  S
C1856      H1860   1.083       .  S
C1861      C1862   1.405       .  A
C1861      C1866   1.404       .  A
C1861      H1871   1.083       .  S
C1862      C1867   1.489       .  S
C1862      C1863   1.410       .  A
C1863      C1864   1.393       .  A
C1863      F1868   1.358       .  S
C1864      C1865   1.402       .  A
C1864      H1869   1.083       .  S
C1865      C1866   1.410       .  A
C1866      F1870   1.357       .  S
C1867      C1872   1.411       .  A
C1867      C1876   1.399       .  A
C1872      C1873   1.410       .  A
C1872      F1877   1.357       .  S
C1873      C1874   1.410       .  A
C1873      H1878   1.080       .  S
C1874      C1875   1.415       .  A
C1875      C1876   1.388       .  A
C1875      F1879   1.359       .  S
C1876      H1880   1.084       .  S
C1881      C1882   1.405       .  A
C1881      C1886   1.400       .  A
C1881      H1891   1.083       .  S
C1882      C1887   1.489       .  S
C1882      C1883   1.409       .  A
C1883      C1884   1.400       .  A
C1883      F1888   1.358       .  S
C1884      C1885   1.406       .  A
C1884      H1889   1.083       .  S
C1885      C1886   1.408       .  A
C1886      F1890   1.357       .  S
C1887      C1892   1.409       .  A
C1887      C1896   1.405       .  A
C1892      C1893   1.399       .  A
C1892      F1897   1.357       .  S
C1893      C1894   1.405       .  A
C1893      H1898   1.083       .  S
C1894      C1895   1.409       .  A
C1895      C1896   1.400       .  A
C1895      F1899   1.357       .  S
C1896      H1900   1.083       .  S
C1901      C1902   1.403       .  A
C1901      C1906   1.394       .  A
C1901      H1911   1.083       .  S
C1902      C1907   1.484       .  S
C1902      C1903   1.408       .  A
C1903      C1904   1.403       .  A
C1903      F1908   1.357       .  S
C1904      C1905   1.406       .  A
C1904      H1909   1.083       .  S
C1905      C1906   1.408       .  A
C1906      F1910   1.358       .  S
C1907      C1912   1.407       .  A
C1907      C1916   1.405       .  A
C1912      C1913   1.395       .  A
C1912      F1917   1.358       .  S
C1913      C1914   1.404       .  A
C1913      H1918   1.083       .  S
C1914      C1915   1.410       .  A
C1915      C1916   1.403       .  A
C1915      F1919   1.357       .  S
C1916      H1920   1.083       .  S
C1921      C1922   1.404       .  A
C1921      C1926   1.400       .  A
C1921      H1931   1.083       .  S
C1922      C1927   1.494       .  S
C1922      C1923   1.410       .  A
C1923      C1924   1.407       .  A
C1923      F1928   1.357       .  S
C1924      C1925   1.407       .  A
C1924      H1929   1.083       .  S
C1925      C1926   1.410       .  A
C1926      F1930   1.357       .  S
C1927      C1932   1.409       .  A
C1927      C1936   1.405       .  A
C1932      C1933   1.404       .  A
C1932      F1937   1.358       .  S
C1933      C1934   1.407       .  A
C1933      H1938   1.083       .  S
C1934      C1935   1.410       .  A
C1935      C1936   1.404       .  A
C1935      F1939   1.357       .  S
C1936      H1940   1.083       .  S
C1941      C1942   1.406       .  A
C1941      C1946   1.398   1_455  A
C1941      H1951   1.083       .  S
C1942      C1947   1.493       .  S
C1942      C1943   1.409       .  A
C1943      C1944   1.404   1_455  A
C1943      F1948   1.357       .  S
C1944      C1945   1.407       .  A
C1944      H1949   1.083       .  S
C1945      C1946   1.409       .  A
C1946      F1950   1.358       .  S
C1947      C1952   1.407       .  A
C1947      C1956   1.409       .  A
C1952      C1953   1.395       .  A
C1952      F1957   1.358       .  S
C1953      C1954   1.405       .  A
C1953      H1958   1.083       .  S
C1954      C1955   1.409       .  A
C1955      C1956   1.407       .  A
C1955      F1959   1.357       .  S
C1956      H1960   1.083       .  S
C1961      C1962   1.402       .  A
C1961      C1966   1.401       .  A
C1961      H1971   1.083       .  S
C1962      C1967   1.480       .  S
C1962      C1963   1.400       .  A
C1963      C1964   1.397       .  A
C1963      F1968   1.358       .  S
C1964      C1965   1.414       .  A
C1964      H1969   1.075       .  S
C1965      C1966   1.414       .  A
C1966      F1970   1.358       .  S
C1967      C1972   1.404       .  A
C1967      C1976   1.403       .  A
C1972      C1973   1.398       .  A
C1972      F1977   1.358       .  S
C1973      C1974   1.406       .  A
C1973      H1978   1.083       .  S
C1974      C1975   1.410       .  A
C1975      C1976   1.402       .  A
C1975      F1979   1.357       .  S
C1976      H1980   1.083       .  S
C1981      C1982   1.404       .  A
C1981      C1986   1.399       .  A
C1981      H1991   1.083       .  S
C1982      C1987   1.489       .  S
C1982      C1983   1.407       .  A
C1983      C1984   1.405       .  A
C1983      F1988   1.357       .  S
C1984      C1985   1.407       .  A
C1984      H1989   1.083       .  S
C1985      C1986   1.409       .  A
C1986      F1990   1.358       .  S
C1987      C1992   1.408       .  A
C1987      C1996   1.402       .  A
C1992      C1993   1.408       .  A
C1992      F1997   1.357       .  S
C1993      C1994   1.408       .  A
C1993      H1998   1.083       .  S
C1994      C1995   1.411       .  A
C1995      C1996   1.397       .  A
C1995      F1999   1.357       .  S
C1996      H2000   1.084       .  S
C2001      C2002   1.404       .  A
C2001      C2006   1.395       .  A
C2001      H2011   1.083       .  S
C2002      C2007   1.484       .  S
C2002      C2003   1.407       .  A
C2003      C2004   1.399       .  A
C2003      F2008   1.357       .  S
C2004      C2005   1.405       .  A
C2004      H2009   1.083       .  S
C2005      C2006   1.408       .  A
C2006      F2010   1.358       .  S
C2007      C2012   1.408       .  A
C2007      C2016   1.405       .  A
C2012      C2013   1.396   1_455  A
C2012      F2017   1.358       .  S
C2013      C2014   1.404       .  A
C2013      H2018   1.083       .  S
C2014      C2015   1.406       .  A
C2015      C2016   1.398   1_655  A
C2015      F2019   1.357       .  S
C2016      H2020   1.083       .  S
C2021      C2022   1.405       .  A
C2021      C2026   1.400       .  A
C2021      H2031   1.083       .  S
C2022      C2027   1.488       .  S
C2022      C2023   1.407       .  A
C2023      C2024   1.401       .  A
C2023      F2028   1.357       .  S
C2024      C2025   1.405       .  A
C2024      H2029   1.083       .  S
C2025      C2026   1.409       .  A
C2026      F2030   1.358       .  S
C2027      C2032   1.407       .  A
C2027      C2036   1.405       .  A
C2032      C2033   1.400       .  A
C2032      F2037   1.357       .  S
C2033      C2034   1.406       .  A
C2033      H2038   1.083       .  S
C2034      C2035   1.409       .  A
C2035      C2036   1.401       .  A
C2035      F2039   1.357       .  S
C2036      H2040   1.083       .  S
C2041      C2042   1.402   1_565  A
C2041      C2046   1.395       .  A
C2041      H2051   1.083   1_565  S
C2042      C2047   1.480       .  S
C2042      C2043   1.406   1_545  A
C2043      C2044   1.402       .  A
C2043      F2048   1.358   1_565  S
C2044      C2045   1.407       .  A
C2044      H2049   1.083       .  S
C2045      C2046   1.408       .  A
C2046      F2050   1.357       .  S
C2047      C2052   1.405       .  A
C2047      C2056   1.403       .  A
C2052      C2053   1.398       .  A
C2052      F2057   1.358       .  S
C2053      C2054   1.405       .  A
C2053      H2058   1.083       .  S
C2054      C2055   1.409       .  A
C2055      C2056   1.399       .  A
C2055      F2059   1.357       .  S
C2056      H2060   1.083       .  S
C2061      C2062   1.403       .  A
C2061      C2066   1.395       .  A
C2061      H2071   1.084       .  S
C2062      C2067   1.483       .  S
C2062      C2063   1.406       .  A
C2063      C2064   1.403       .  A
C2063      F2068   1.357       .  S
C2064      C2065   1.408       .  A
C2064      H2069   1.083       .  S
C2065      C2066   1.408       .  A
C2066      F2070   1.357       .  S
C2067      C2072   1.403       .  A
C2067      C2076   1.403       .  A
C2072      C2073   1.396       .  A
C2072      F2077   1.358       .  S
C2073      C2074   1.411       .  A
C2073      H2078   1.079       .  S
C2074      C2075   1.415       .  A
C2075      C2076   1.402       .  A
C2075      F2079   1.357       .  S
C2076      H2080   1.083       .  S
C2081      C2082   1.406       .  A
C2081      C2086   1.400       .  A
C2081      H2091   1.083       .  S
C2082      C2087   1.488       .  S
C2082      C2083   1.408       .  A
C2083      C2084   1.398       .  A
C2083      F2088   1.357       .  S
C2084      C2085   1.405       .  A
C2084      H2089   1.083       .  S
C2085      C2086   1.408       .  A
C2086      F2090   1.357       .  S
C2087      C2092   1.408       .  A
C2087      C2096   1.406       .  A
C2092      C2093   1.398       .  A
C2092      F2097   1.357       .  S
C2093      C2094   1.404       .  A
C2093      H2098   1.083       .  S
C2094      C2095   1.409       .  A
C2095      C2096   1.401       .  A
C2095      F2099   1.358       .  S
C2096      H2100   1.083       .  S
C2101      C2102   1.402       .  A
C2101      C2106   1.392       .  A
C2101      H2111   1.084       .  S
C2102      C2107   1.484       .  S
C2102      C2103   1.408       .  A
C2103      C2104   1.404       .  A
C2103      F2108   1.357       .  S
C2104      C2105   1.407       .  A
C2104      H2109   1.083       .  S
C2105      C2106   1.408       .  A
C2106      F2110   1.358       .  S
C2107      C2112   1.407       .  A
C2107      C2116   1.404       .  A
C2112      C2113   1.402       .  A
C2112      F2117   1.357       .  S
C2113      C2114   1.406       .  A
C2113      H2118   1.083       .  S
C2114      C2115   1.407       .  A
C2115      C2116   1.394       .  A
C2115      F2119   1.358       .  S
C2116      H2120   1.083       .  S
C2121      C2122   1.402       .  A
C2121      C2126   1.401       .  A
C2121      H2131   1.083       .  S
C2122      C2127   1.482       .  S
C2122      C2123   1.403       .  A
C2123      C2124   1.397       .  A
C2123      F2128   1.358       .  S
C2124      C2125   1.412       .  A
C2124      H2129   1.083       .  S
C2125      C2126   1.415       .  A
C2126      F2130   1.355       .  S
C2127      C2132   1.406       .  A
C2127      C2136   1.403       .  A
C2132      C2133   1.403       .  A
C2132      F2137   1.357       .  S
C2133      C2134   1.407       .  A
C2133      H2138   1.083       .  S
C2134      C2135   1.409       .  A
C2135      C2136   1.396       .  A
C2135      F2139   1.358       .  S
C2136      H2140   1.083       .  S
C2141      C2142   1.405       .  A
C2141      C2146   1.400       .  A
C2141      H2151   1.083       .  S
C2142      C2147   1.484       .  S
C2142      C2143   1.407       .  A
C2143      C2144   1.398       .  A
C2143      F2148   1.358       .  S
C2144      C2145   1.406       .  A
C2144      H2149   1.083       .  S
C2145      C2146   1.408       .  A
C2146      F2150   1.357       .  S
C2147      C2152   1.407       .  A
C2147      C2156   1.405       .  A
C2152      C2153   1.398       .  A
C2152      F2157   1.357       .  S
C2153      C2154   1.405       .  A
C2153      H2158   1.083       .  S
C2154      C2155   1.409       .  A
C2155      C2156   1.399       .  A
C2155      F2159   1.357       .  S
C2156      H2160   1.083       .  S
C2161      C2162   1.406       .  A
C2161      C2166   1.400       .  A
C2161      H2171   1.083       .  S
C2162      C2167   1.486   1_545  S
C2162      C2163   1.407       .  A
C2163      C2164   1.399       .  A
C2163      F2168   1.358       .  S
C2164      C2165   1.406       .  A
C2164      H2169   1.083       .  S
C2165      C2166   1.406       .  A
C2166      F2170   1.357       .  S
C2167      C2172   1.406       .  A
C2167      C2176   1.405       .  A
C2172      C2173   1.401       .  A
C2172      F2177   1.357       .  S
C2173      C2174   1.405       .  A
C2173      H2178   1.083       .  S
C2174      C2175   1.409       .  A
C2175      C2176   1.400       .  A
C2175      F2179   1.358       .  S
C2176      H2180   1.083   1_565  S
C2181      C2182   1.406       .  A
C2181      C2186   1.401       .  A
C2181      H2191   1.083       .  S
C2182      C2187   1.490       .  S
C2182      C2183   1.408       .  A
C2183      C2184   1.398       .  A
C2183      F2188   1.357       .  S
C2184      C2185   1.404       .  A
C2184      H2189   1.083       .  S
C2185      C2186   1.409       .  A
C2186      F2190   1.357       .  S
C2187      C2192   1.408       .  A
C2187      C2196   1.406       .  A
C2192      C2193   1.400       .  A
C2192      F2197   1.357       .  S
C2193      C2194   1.406       .  A
C2193      H2198   1.083       .  S
C2194      C2195   1.407       .  A
C2195      C2196   1.398       .  A
C2195      F2199   1.357       .  S
C2196      H2200   1.083       .  S
C2201      C2202   1.405       .  A
C2201      C2206   1.398       .  A
C2201      H2211   1.083       .  S
C2202      C2207   1.489       .  S
C2202      C2203   1.408       .  A
C2203      C2204   1.403       .  A
C2203      F2208   1.357       .  S
C2204      C2205   1.407       .  A
C2204      H2209   1.083       .  S
C2205      C2206   1.409       .  A
C2206      F2210   1.357       .  S
C2207      C2212   1.408       .  A
C2207      C2216   1.405       .  A
C2212      C2213   1.403       .  A
C2212      F2217   1.357       .  S
C2213      C2214   1.407       .  A
C2213      H2218   1.083       .  S
C2214      C2215   1.409       .  A
C2215      C2216   1.398       .  A
C2215      F2219   1.357       .  S
C2216      H2220   1.083       .  S
C2221      C2222   1.399       .  A
C2221      C2226   1.398       .  A
C2221      H2231   1.083       .  S
C2222      C2227   1.478       .  S
C2222      C2223   1.402       .  A
C2223      C2224   1.401       .  A
C2223      F2228   1.358       .  S
C2224      C2225   1.415       .  A
C2224      H2229   1.076       .  S
C2225      C2226   1.414       .  A
C2226      F2230   1.357       .  S
C2227      C2232   1.405       .  A
C2227      C2236   1.400       .  A
C2232      C2233   1.403       .  A
C2232      F2237   1.357       .  S
C2233      C2234   1.408       .  A
C2233      H2238   1.083       .  S
C2234      C2235   1.410       .  A
C2235      C2236   1.396       .  A
C2235      F2239   1.357       .  S
C2236      H2240   1.084       .  S
C2241      C2242   1.395       .  A
C2241      C2246   1.388       .  A
C2241      H2251   1.084       .  S
C2242      C2247   1.479       .  S
C2242      C2243   1.407       .  A
C2243      C2244   1.409       .  A
C2243      F2248   1.357       .  S
C2244      C2245   1.410       .  A
C2244      H2249   1.080       .  S
C2245      C2246   1.416       .  A
C2246      F2250   1.359       .  S
C2247      C2252   1.404       .  A
C2247      C2256   1.402       .  A
C2252      C2253   1.404       .  A
C2252      F2257   1.357       .  S
C2253      C2254   1.409       .  A
C2253      H2258   1.083       .  S
C2254      C2255   1.409       .  A
C2255      C2256   1.395       .  A
C2255      F2259   1.357       .  S
C2256      H2260   1.084       .  S
C2261      C2262   1.408       .  A
C2261      C2266   1.402       .  A
C2261      H2271   1.083       .  S
C2262      C2267   1.489       .  S
C2262      C2263   1.407       .  A
C2263      C2264   1.398       .  A
C2263      F2268   1.358       .  S
C2264      C2265   1.404       .  A
C2264      H2269   1.081       .  S
C2265      C2266   1.404       .  A
C2266      F2270   1.357       .  S
C2267      C2272   1.409       .  A
C2267      C2276   1.408       .  A
C2272      C2273   1.398       .  A
C2272      F2277   1.357       .  S
C2273      C2274   1.400       .  A
C2273      H2278   1.083       .  S
C2274      C2275   1.404       .  A
C2275      C2276   1.403       .  A
C2275      F2279   1.357       .  S
C2276      H2280   1.083       .  S
C2281      C2282   1.403       .  A
C2281      C2286   1.401       .  A
C2281      H2291   1.083       .  S
C2282      C2287   1.485       .  S
C2282      C2283   1.403       .  A
C2283      C2284   1.397       .  A
C2283      F2288   1.358       .  S
C2284      C2285   1.412       .  A
C2284      H2289   1.074       .  S
C2285      C2286   1.415       .  A
C2286      F2290   1.358       .  S
C2287      C2292   1.407       .  A
C2287      C2296   1.403       .  A
C2292      C2293   1.401       .  A
C2292      F2297   1.357       .  S
C2293      C2294   1.405       .  A
C2293      H2298   1.083       .  S
C2294      C2295   1.411       .  A
C2295      C2296   1.400       .  A
C2295      F2299   1.357       .  S
C2296      H2300   1.083       .  S
C2301      C2302   1.401       .  A
C2301      C2306   1.399       .  A
C2301      H2311   1.083       .  S
C2302      C2307   1.474       .  S
C2302      C2303   1.401       .  A
C2303      C2304   1.395       .  A
C2303      F2308   1.358       .  S
C2304      C2305   1.409       .  A
C2304      H2309   1.082       .  S
C2305      C2306   1.411       .  A
C2306      F2310   1.356       .  S
C2307      C2312   1.403       .  A
C2307      C2316   1.401       .  A
C2312      C2313   1.397       .  A
C2312      F2317   1.358       .  S
C2313      C2314   1.406       .  A
C2313      H2318   1.083       .  S
C2314      C2315   1.409       .  A
C2315      C2316   1.398       .  A
C2315      F2319   1.357       .  S
C2316      H2320   1.083       .  S
C2321      C2322   1.401       .  A
C2321      C2326   1.398       .  A
C2321      H2331   1.084       .  S
C2322      C2327   1.486       .  S
C2322      C2323   1.407       .  A
C2323      C2324   1.406       .  A
C2323      F2328   1.357       .  S
C2324      C2325   1.408       .  A
C2324      H2329   1.083       .  S
C2325      C2326   1.411       .  A
C2326      F2330   1.357       .  S
C2327      C2332   1.404       .  A
C2327      C2336   1.401       .  A
C2332      C2333   1.404       .  A
C2332      F2337   1.357       .  S
C2333      C2334   1.413       .  A
C2333      H2338   1.078       .  S
C2334      C2335   1.415       .  A
C2335      C2336   1.397       .  A
C2335      F2339   1.358       .  S
C2336      H2340   1.084       .  S
C2341      C2342   1.400       .  A
C2341      C2346   1.397       .  A
C2341      H2351   1.084       .  S
C2342      C2347   1.473       .  S
C2342      C2343   1.401       .  A
C2343      C2344   1.397       .  A
C2343      F2348   1.357       .  S
C2344      C2345   1.407       .  A
C2344      H2349   1.079       .  S
C2345      C2346   1.413       .  A
C2346      F2350   1.357       .  S
C2347      C2352   1.401       .  A
C2347      C2356   1.400       .  A
C2352      C2353   1.397       .  A
C2352      F2357   1.357       .  S
C2353      C2354   1.410       .  A
C2353      H2358   1.082       .  S
C2354      C2355   1.411       .  A
C2355      C2356   1.396       .  A
C2355      F2359   1.355       .  S
C2356      H2360   1.084       .  S
C2361      C2362   1.406       .  A
C2361      C2366   1.402       .  A
C2361      H2371   1.082       .  S
C2362      C2367   1.481       .  S
C2362      C2363   1.405       .  A
C2363      C2364   1.396       .  A
C2363      F2368   1.358       .  S
C2364      C2365   1.402       .  A
C2364      H2369   1.080       .  S
C2365      C2366   1.406       .  A
C2366      F2370   1.357       .  S
C2367      C2372   1.405       .  A
C2367      C2376   1.407       .  A
C2372      C2373   1.397       .  A
C2372      F2377   1.358       .  S
C2373      C2374   1.403       .  A
C2373      H2378   1.073       .  S
C2374      C2375   1.402       .  A
C2375      C2376   1.402       .  A
C2375      F2379   1.357       .  S
C2376      H2380   1.080       .  S
C2381      C2382   1.403       .  A
C2381      C2386   1.404       .  A
C2381      H2391   1.083       .  S
C2382      C2387   1.486       .  S
C2382      C2383   1.403       .  A
C2383      C2384   1.397       .  A
C2383      F2388   1.358       .  S
C2384      C2385   1.412       .  A
C2384      H2389   1.080       .  S
C2385      C2386   1.414       .  A
C2386      F2390   1.357       .  S
C2387      C2392   1.406       .  A
C2387      C2396   1.405       .  A
C2392      C2393   1.396       .  A
C2392      F2397   1.358       .  S
C2393      C2394   1.406       .  A
C2393      H2398   1.083       .  S
C2394      C2395   1.410       .  A
C2395      C2396   1.405       .  A
C2395      F2399   1.357       .  S
C2396      H2400   1.083       .  S
C2401      C2402   1.400       .  A
C2401      C2406   1.396       .  A
C2401      H2411   1.080       .  S
C2402      C2407   1.466       .  S
C2402      C2403   1.398       .  A
C2403      C2404   1.394       .  A
C2403      F2408   1.358       .  S
C2404      C2405   1.409       .  A
C2404      H2409   1.073       .  S
C2405      C2406   1.413       .  A
C2406      F2410   1.356       .  S
C2407      C2412   1.401       .  A
C2407      C2416   1.399       .  A
C2412      C2413   1.397       .  A
C2412      F2417   1.357       .  S
C2413      C2414   1.406       .  A
C2413      H2418   1.083       .  S
C2414      C2415   1.409       .  A
C2415      C2416   1.392       .  A
C2415      F2419   1.356       .  S
C2416      H2420   1.084       .  S
C2421      C2422   1.402       .  A
C2421      C2426   1.399       .  A
C2421      H2431   1.083       .  S
C2422      C2427   1.478       .  S
C2422      C2423   1.404       .  A
C2423      C2424   1.398       .  A
C2423      F2428   1.358       .  S
C2424      C2425   1.409       .  A
C2424      H2429   1.082       .  S
C2425      C2426   1.410       .  A
C2426      F2430   1.357       .  S
C2427      C2432   1.404       .  A
C2427      C2436   1.402       .  A
C2432      C2433   1.397       .  A
C2432      F2437   1.358       .  S
C2433      C2434   1.408       .  A
C2433      H2438   1.082       .  S
C2434      C2435   1.411       .  A
C2435      C2436   1.399       .  A
C2435      F2439   1.357       .  S
C2436      H2440   1.083       .  S
C2441      C2442   1.402       .  A
C2441      C2446   1.399       .  A
C2441      H2451   1.083       .  S
C2442      C2447   1.482       .  S
C2442      C2443   1.403       .  A
C2443      C2444   1.398       .  A
C2443      F2448   1.358       .  S
C2444      C2445   1.413       .  A
C2444      H2449   1.076       .  S
C2445      C2446   1.413       .  A
C2446      F2450   1.358       .  S
C2447      C2452   1.405       .  A
C2447      C2456   1.404       .  A
C2452      C2453   1.396       .  A
C2452      F2457   1.358       .  S
C2453      C2454   1.405       .  A
C2453      H2458   1.083       .  S
C2454      C2455   1.410       .  A
C2455      C2456   1.402       .  A
C2455      F2459   1.357       .  S
C2456      H2460   1.083       .  S
C2461      C2462   1.402       .  A
C2461      C2466   1.399       .  A
C2461      H2471   1.083       .  S
C2462      C2467   1.477       .  S
C2462      C2463   1.403       .  A
C2463      C2464   1.398       .  A
C2463      F2468   1.357       .  S
C2464      C2465   1.406       .  A
C2464      H2469   1.083       .  S
C2465      C2466   1.411       .  A
C2466      F2470   1.357       .  S
C2467      C2472   1.403       .  A
C2467      C2476   1.399       .  A
C2472      C2473   1.401       .  A
C2472      F2477   1.357       .  S
C2473      C2474   1.409       .  A
C2473      H2478   1.083       .  S
C2474      C2475   1.413       .  A
C2475      C2476   1.397       .  A
C2475      F2479   1.355       .  S
C2476      H2480   1.084       .  S
C2481      C2482   1.401       .  A
C2481      C2486   1.393       .  A
C2481      H2491   1.084       .  S
C2482      C2487   1.475       .  S
C2482      C2483   1.403       .  A
C2483      C2484   1.398       .  A
C2483      F2488   1.358       .  S
C2484      C2485   1.407       .  A
C2484      H2489   1.082       .  S
C2485      C2486   1.411       .  A
C2486      F2490   1.357       .  S
C2487      C2492   1.406       .  A
C2487      C2496   1.404       .  A
C2492      C2493   1.392       .  A
C2492      F2497   1.358       .  S
C2493      C2494   1.399       .  A
C2493      H2498   1.084       .  S
C2494      C2495   1.403       .  A
C2495      C2496   1.400       .  A
C2495      F2499   1.356       .  S
C2496      H2500   1.083       .  S
C2501      C2502   1.405       .  A
C2501      C2506   1.397       .  A
C2501      H2511   1.083       .  S
C2502      C2507   1.485       .  S
C2502      C2503   1.410       .  A
C2503      C2504   1.401       .  A
C2503      F2508   1.357       .  S
C2504      C2505   1.401       .  A
C2504      H2509   1.083       .  S
C2505      C2506   1.402       .  A
C2506      F2510   1.357       .  S
C2507      C2512   1.406       .  A
C2507      C2516   1.408       .  A
C2512      C2513   1.395       .  A
C2512      F2517   1.358       .  S
C2513      C2514   1.404       .  A
C2513      H2518   1.084       .  S
C2514      C2515   1.403       .  A
C2515      C2516   1.402       .  A
C2515      F2519   1.357       .  S
C2516      H2520   1.083       .  S
