geometry optimzed in LAMMPS
_audit_creation_date              2020-11-30 
_audit_creation_method            'lammps2cif' 
_symmetry_space_group_name_H-M    'P1' 
_symmetry_Int_Tables_number       1 
_symmetry_cell_setting            triclinic 
loop_ 
_symmetry_equiv_pos_as_xyz 
  x,y,z 
_cell_length_a                    34.38332959 
_cell_length_b                    33.62245031381869 
_cell_length_c                    42.84365885683739 
_cell_angle_alpha                 88.54223949220673 
_cell_angle_beta                  90.63599393521746 
_cell_angle_gamma                 88.73908707562583 
loop_ 
_atom_site_label 
_atom_site_type_symbol 
_atom_site_fract_x 
_atom_site_fract_y 
_atom_site_fract_z 
_atom_site_charge 
O1          O  0.16140634  0.27286147  0.46602275    -0.72600
O2          O  0.13711403  0.19289728  0.03362203    -0.73600
O3          O  0.13850633  0.19495908  0.46637132    -0.62200
O4          O  0.16160868  0.27029268  0.03424746    -0.70600
O5          O  0.09985188  0.29097873  0.03405317    -0.70200
O6          O  0.07736729  0.21766444  0.46383937    -0.61400
O7          O  0.07535042  0.21362402  0.03175123    -0.73900
O8          O  0.10022359  0.29522110  0.46640010    -0.72700
Cu9        Cu  0.15176755  0.23208690  0.00009955     1.04600
Cu10       Cu  0.08608319  0.25502996  0.49899489     1.04300
C11         C  0.13346767  0.29367892  0.45352409     0.93600
C12         C  0.10314550  0.19409078  0.04541935     0.92700
C13         C  0.10566988  0.19780030  0.45227784     0.84900
C14         C  0.13356189  0.28906812  0.04700810     0.91100
O15         O  0.23223437  0.05126604  0.03336954    -0.72600
O16         O  0.21605275  0.47838821  0.46095089    -0.73600
O17         O  0.20842858  0.47382538  0.02866311    -0.62200
O18         O  0.23867914  0.05686455  0.46615709    -0.70600
O19         O  0.05026777  0.03630630  0.46960638    -0.70200
O20         O  0.02016877  0.45354291  0.03349342    -0.61400
O21         O  0.02761017  0.45801119  0.46646770    -0.73900
O22         O  0.04405393  0.03086656  0.03660420    -0.72700
Cu23       Cu  0.22170081  0.01580461  0.99707881     1.04600
Cu24       Cu  0.03756112  0.99398475  0.00161677     1.04300
C25         C  0.26485912  0.04911339  0.04805125     0.93600
C26         C  0.24569806  0.45905776  0.45094896     0.92700
C27         C  0.23521872  0.45405252  0.04338725     0.84900
C28         C  0.27337399  0.05717508  0.45587041     0.91100
C29         C  0.21004743  0.12362308  0.25113870     0.30300
C30         C  0.03974638  0.12362022  0.25023008     0.30300
C31         C  0.22984296  0.10333162  0.22288144    -0.05900
C32         C  0.22890312  0.16500282  0.25037483    -0.06600
C33         C  0.23147464  0.10270388  0.27971490    -0.06500
C34         C  0.02036480  0.10313313  0.22322617    -0.05900
C35         C  0.01930985  0.16467503  0.24991978    -0.06600
C36         C  0.02195277  0.10207405  0.27799134    -0.06500
C37         C  0.03338492  0.08844257  0.19571730    -0.31900
N38         N  0.25230653  0.08208680  0.17733360     0.14600
C39         C  0.21934650  0.08958455  0.19374846    -0.31900
H40         H  0.19020027  0.08720089  0.18450489     0.16500
C41         C  0.03114299  0.20355032  0.24964692    -0.30900
N42         N  0.24911651  0.22777060  0.25009404     0.13300
C43         C  0.21695668  0.20462134  0.25048333    -0.30900
C44         C  0.03730512  0.08979717  0.30612155    -0.31200
N45         N  0.25831421  0.08664829  0.32673686     0.13800
H46         H  0.06788444  0.08805226  0.31222155     0.16400
C47         C  0.22387678  0.09345009  0.31097239    -0.31200
H48         H  0.19570420  0.09387322  0.32188106     0.16400
H49         H  0.18716514  0.21552624  0.25100154     0.16400
H50         H  0.06328851  0.08583637  0.18829342     0.16500
H51         H  0.06086926  0.21333798  0.24934337     0.16500
C52         C  0.03888415  0.37379257  0.24757844     0.30300
C53         C  0.20916010  0.37431533  0.24869295     0.30300
C54         C  0.01762803  0.39391886  0.21889082    -0.05900
C55         C  0.01982971  0.33256820  0.24911184    -0.06600
C56         C  0.01938324  0.39491706  0.27527938    -0.06500
C57         C  0.22712998  0.39457793  0.22017443    -0.05900
C58         C  0.22938615  0.33309000  0.24969865    -0.06600
C59         C  0.22904079  0.39548652  0.27545748    -0.06500
C60         C  0.21267390  0.40856142  0.19194561    -0.31900
N61         N  0.24269476  0.41360267  0.17244329     0.14600
C62         C  0.02647858  0.40606108  0.18865311    -0.31900
H63         H  0.05506839  0.40775774  0.17878308     0.16500
C64         C  0.21746698  0.29422154  0.25049166    -0.30900
N65         N  0.24946558  0.26990635  0.25026389     0.13300
C66         C  0.03167541  0.29295869  0.24948115    -0.30100
C67         C  0.21723798  0.41099871  0.30320437    -0.31200
N68         N  0.24906996  0.41799608  0.32116385     0.13800
H69         H  0.18734406  0.41474858  0.31023977     0.16400
C70         C  0.03099354  0.40864453  0.30385441    -0.31200
H71         H  0.06071766  0.40835421  0.31195201     0.16400
H72         H  0.06144441  0.28200184  0.24885876     0.16400
H73         H  0.18238222  0.41175633  0.18503893     0.16500
H74         H  0.18771877  0.28450084  0.25083215     0.16500
C75         C  0.08442830  0.37361250  0.24783637     0.30300
C76         C  0.16420178  0.37373272  0.24865932     0.30300
C77         C  0.10485346  0.35332286  0.22016489    -0.05900
C78         C  0.10343013  0.41514166  0.24767019    -0.06600
C79         C  0.10488718  0.35245297  0.27642813    -0.06500
C80         C  0.14532578  0.35320579  0.22108739    -0.05900
C81         C  0.14389496  0.41473284  0.24804339    -0.06600
C82         C  0.14540643  0.35268345  0.27640010    -0.06500
C83         C  0.15862918  0.33732958  0.19391082    -0.31900
N84         N  0.12772811  0.33001912  0.17545661     0.14600
C85         C  0.09467685  0.33790007  0.19165159    -0.31900
H86         H  0.06553803  0.33400962  0.18298596     0.16500
C87         C  0.15596789  0.45346144  0.24894682    -0.30900
N88         N  0.12408896  0.47784661  0.24928955     0.13300
C89         C  0.09175361  0.45487311  0.24848132    -0.30900
C90         C  0.15866402  0.33797733  0.30473063    -0.31200
N91         N  0.12768309  0.32963847  0.32268846     0.13800
H92         H  0.18860314  0.33668501  0.31276610     0.16400
C93         C  0.09465777  0.33757302  0.30558913    -0.31200
H94         H  0.06548147  0.33501413  0.31449771     0.16400
H95         H  0.06200682  0.46593852  0.24884095     0.16400
H96         H  0.18861702  0.33412890  0.18684612     0.16500
H97         H  0.18575597  0.46303327  0.24967551     0.16500
C98         C  0.08469101  0.12423262  0.25037441     0.30300
C99         C  0.16446267  0.12401530  0.25085221     0.30300
C100        C  0.10362852  0.14527989  0.27741841    -0.05900
C101        C  0.10498827  0.08313365  0.25125981    -0.06600
C102        C  0.10316118  0.14511951  0.22270807    -0.06500
C103        C  0.14410863  0.14483107  0.27852418    -0.05900
C104        C  0.14542739  0.08262725  0.25153405    -0.06600
C105        C  0.14369104  0.14468398  0.22197089    -0.06500
C106        C  0.15383763  0.16034857  0.30721072    -0.31900
N107        N  0.12048443  0.16957993  0.32262229     0.14600
C108        C  0.08994558  0.16199739  0.30398832    -0.31900
H109        H  0.05982725  0.16495557  0.31079727     0.16500
C110        C  0.15709366  0.04289778  0.25112408    -0.30900
N111        N  0.12474815  0.01993567  0.25063434     0.13300
C112        C  0.09288838  0.04436814  0.25078676    -0.30900
C113        C  0.15276563  0.15760495  0.19192006    -0.31200
N114        N  0.11904644  0.16539624  0.17563663     0.13800
H115        H  0.18137135  0.15916427  0.18204040     0.16400
C116        C  0.08891388  0.15970606  0.19480993    -0.31200
H117        H  0.05865787  0.16222858  0.18768151     0.16400
H118        H  0.06309651  0.03480124  0.25012817     0.16400
H119        H  0.18276050  0.16320650  0.31675414     0.16500
H120        H  0.18683856  0.03183291  0.25070911     0.16500
C121        C  0.03010344  0.44758956  0.40192901    -0.26000
C122        C  0.24587795  0.44309153  0.41901036    -0.14100
C123        C  0.21247770  0.42952405  0.40375738     0.36600
C124        C  0.21439748  0.42044056  0.37184302    -0.25400
C125        C  0.24831566  0.42726836  0.35414397    -0.14700
C126        C  0.03118012  0.44235888  0.36966308     0.37700
N127        N  0.06505926  0.45413129  0.35273273    -0.88900
H128        H  0.05589374  0.45771470  0.41351281     0.18800
H129        H  0.18901654  0.40806836  0.36102587     0.18800
N130        N  0.17688534  0.42494712  0.42058926    -0.87900
H131        H  0.08643727  0.46483824  0.36769160     0.36100
H132        H  0.05671273  0.47774175  0.33759679     0.41200
H133        H  0.18152507  0.40225598  0.43744888     0.40900
H134        H  0.15481593  0.41560321  0.40569416     0.35800
C135        C  0.21739321  0.45560507  0.12934191    -0.26000
C136        C  0.23765057  0.42110295  0.13949229    -0.14100
C137        C  0.99858535  0.39262998  0.11729418     0.36600
C138        C  0.99522689  0.40224993  0.08537958    -0.25400
C139        C  0.22783618  0.43840540  0.07516660    -0.14700
C140        C  0.21159705  0.46427296  0.09741042     0.37700
N141        N  0.19214774  0.50085391  0.08759857    -0.88900
H142        H  0.20687081  0.47623247  0.14651601     0.18800
H143        H  0.00685239  0.38178753  0.06851591     0.18800
N144        N  0.01172308  0.35340270  0.12646735    -0.87900
H145        H  0.18440141  0.51760347  0.10689231     0.36100
H146        H  0.16613380  0.49344387  0.07655183     0.41200
H147        H  0.99042719  0.34052806  0.14045809     0.40900
H148        H  0.03692790  0.35571526  0.13977604     0.35800
C149        C  0.04768032  0.06161717  0.37164131    -0.26000
C150        C  0.26572129  0.08447264  0.35997218    -0.14100
C151        C  0.24565587  0.10927723  0.38067326     0.36600
C152        C  0.25145629  0.10344051  0.41299394    -0.25400
C153        C  0.27977082  0.07609200  0.42481259    -0.14700
C154        C  0.05620636  0.05885188  0.40373032     0.37700
N155        N  0.09155907  0.03907698  0.41458200    -0.88900
H156        H  0.06606258  0.04564431  0.35566044     0.18800
H157        H  0.23276722  0.11909454  0.42901321     0.18800
N158        N  0.22068025  0.14101590  0.36886937    -0.87900
H159        H  0.10905048  0.03145849  0.39573793     0.36100
H160        H  0.08471973  0.01236579  0.42577349     0.41200
H161        H  0.23790040  0.16040424  0.35581845     0.40900
H162        H  0.20981968  0.15762119  0.38727674     0.35800
C163        C  0.24816151  0.09660820  0.09001262    -0.26000
C164        C  0.26695689  0.06153225  0.08074201    -0.14100
C165        C  0.03327545  0.03506613  0.10374493     0.36600
C166        C  0.02628864  0.04160121  0.13527815    -0.25400
C167        C  0.25579561  0.07554897  0.14456638    -0.14700
C168        C  0.24504759  0.10524043  0.12176993     0.37700
N169        N  0.23488810  0.14531747  0.12983203    -0.88900
H170        H  0.23729805  0.11802138  0.07251318     0.18800
H171        H  0.03741388  0.02032908  0.15278885     0.18800
N172        N  0.05618885  0.00096817  0.09522405    -0.87900
H173        H  0.95627247  0.15153908  0.12270196     0.36100
H174        H  0.98711791  0.14946085  0.15379948     0.41200
H175        H  0.29379563  0.97551050  0.10495869     0.40900
H176        H  0.33387205  0.00345107  0.10524780     0.35800
C177        C  0.16105333  0.28835565  0.40080213    -0.26000
C178        C  0.13715967  0.30970855  0.42121254    -0.14100
C179        C  0.11091085  0.33893256  0.40863816     0.36600
C180        C  0.10779671  0.34493179  0.37612038    -0.25400
C181        C  0.13039196  0.32211856  0.35583318    -0.14700
C182        C  0.15763892  0.29406648  0.36839469     0.37700
N183        N  0.18066244  0.27001503  0.34818949    -0.88900
H184        H  0.18061166  0.26497965  0.40981901     0.18800
H185        H  0.08768628  0.36749619  0.36665671     0.18800
N186        N  0.08704786  0.36219197  0.42878612    -0.87900
H187        H  0.17492163  0.24013226  0.35319392     0.36100
H188        H  0.20998259  0.27459134  0.35338793     0.41200
H189        H  0.05793861  0.35795127  0.42266370     0.40900
H190        H  0.09307157  0.39217730  0.42467374     0.35800
C191        C  0.11788259  0.33800065  0.08791857    -0.26000
C192        C  0.13823719  0.30356502  0.07912445    -0.14100
C193        C  0.15782347  0.27973445  0.10242811     0.36600
C194        C  0.15305121  0.28869489  0.13399689    -0.25400
C195        C  0.13107706  0.32197317  0.14279015    -0.14700
C196        C  0.11647838  0.34892436  0.11927737     0.37700
N197        N  0.10189648  0.38807996  0.12618033    -0.88900
H198        H  0.10388716  0.35712518  0.07019658     0.18800
H199        H  0.16633086  0.26951009  0.15201529     0.18800
N200        N  0.18162562  0.24595496  0.09423340    -0.87900
H201        H  0.11775775  0.40851080  0.11295178     0.36100
H202        H  0.10824505  0.39477432  0.14926867     0.41200
H203        H  0.16339314  0.22453536  0.08537404     0.40900
H204        H  0.19505570  0.23287376  0.11408972     0.35800
C205        C  0.13058624  0.14732159  0.37710789    -0.26000
C206        C  0.11604222  0.17593637  0.35536772    -0.14100
C207        C  0.09252122  0.20766873  0.36560291     0.36600
C208        C  0.08616072  0.21172165  0.39765009    -0.25400
C209        C  0.10326423  0.18484705  0.41970905    -0.14700
C210        C  0.12513782  0.15186965  0.40932336     0.37700
N211        N  0.14232433  0.12374489  0.43152605    -0.88900
H212        H  0.14620312  0.12143069  0.36880194     0.18800
H213        H  0.06989601  0.23750207  0.40550248     0.18800
N214        N  0.07550799  0.23574564  0.34326390    -0.87900
H215        H  0.15745110  0.10121397  0.42004936     0.36100
H216        H  0.11967366  0.11014559  0.44353612     0.41200
H217        H  0.09814151  0.24960787  0.33145962     0.40900
H218        H  0.05985925  0.25807841  0.35455044     0.35800
C219        C  0.12117494  0.14748988  0.08951484    -0.26000
C220        C  0.09855318  0.18000549  0.07800982    -0.14100
C221        C  0.08027307  0.20553744  0.09940228     0.36600
C222        C  0.08854736  0.20085939  0.13128804    -0.25400
C223        C  0.11354111  0.17031196  0.14255393    -0.14700
C224        C  0.12736493  0.14145067  0.12182365     0.37700
N225        N  0.14714453  0.10608751  0.13369747    -0.88900
H226        H  0.13481064  0.12748486  0.07326364     0.18800
H227        H  0.07574183  0.22152838  0.14746315     0.18800
N228        N  0.05520331  0.23785877  0.08882002    -0.87900
H229        H  0.15535820  0.08786649  0.11537664     0.36100
H230        H  0.12727974  0.09005962  0.14705511     0.41200
H231        H  0.06660551  0.26436058  0.09680430     0.40900
H232        H  0.02806028  0.23420302  0.09915751     0.35800
O233        O  0.16140627  0.27286147  0.96602276    -0.72600
O234        O  0.13711406  0.19289735  0.53362200    -0.73600
O235        O  0.13850636  0.19495907  0.96637132    -0.62200
O236        O  0.16160871  0.27029272  0.53424746    -0.70600
O237        O  0.09985191  0.29097878  0.53405318    -0.70200
O238        O  0.07736732  0.21766444  0.96383937    -0.61400
O239        O  0.07535042  0.21362404  0.53175122    -0.73900
O240        O  0.10022354  0.29522114  0.96640014    -0.72700
Cu241      Cu  0.15176758  0.23208693  0.50009954     1.04600
Cu242      Cu  0.08608320  0.25502994  0.99899489     1.04300
C243        C  0.13346760  0.29367893  0.95352411     0.93600
C244        C  0.10314553  0.19409082  0.54541933     0.92700
C245        C  0.10566992  0.19780030  0.95227782     0.84900
C246        C  0.13356192  0.28906815  0.54700812     0.91100
O247        O  0.23223433  0.05126603  0.53336952    -0.72600
O248        O  0.21605271  0.47838825  0.96095081    -0.73600
O249        O  0.20842862  0.47382553  0.52866314    -0.62200
O250        O  0.23867920  0.05686455  0.96615706    -0.70600
O251        O  0.05026790  0.03630640  0.96960641    -0.70200
O252        O  0.02016878  0.45354299  0.53349334    -0.61400
O253        O  0.02761019  0.45801102  0.96646775    -0.73900
O254        O  0.04405380  0.03086643  0.53660423    -0.72700
Cu255      Cu  0.22170076  0.01580457  0.49707881     1.04600
Cu256      Cu  0.03756110  0.99398463  0.50161678     1.04300
C257        C  0.26485906  0.04911331  0.54805125     0.93600
C258        C  0.24569799  0.45905770  0.95094892     0.92700
C259        C  0.23521876  0.45405262  0.54338724     0.84900
C260        C  0.27337406  0.05717511  0.95587041     0.91100
C261        C  0.21004747  0.12362309  0.75113872     0.30300
C262        C  0.03974644  0.12362023  0.75023006     0.30300
C263        C  0.22984300  0.10333166  0.72288144    -0.05900
C264        C  0.22890313  0.16500284  0.75037488    -0.06600
C265        C  0.23147467  0.10270385  0.77971491    -0.06500
C266        C  0.02036483  0.10313317  0.72322615    -0.05900
C267        C  0.01930991  0.16467505  0.74991983    -0.06600
C268        C  0.02195284  0.10207398  0.77799132    -0.06500
C269        C  0.03338492  0.08844265  0.69571726    -0.31900
N270        N  0.25230658  0.08208666  0.67733365     0.14600
C271        C  0.21934655  0.08958443  0.69374851    -0.31900
H272        H  0.19020031  0.08720069  0.68450496     0.16500
C273        C  0.03114301  0.20355037  0.74964699    -0.30900
N274        N  0.24911647  0.22777066  0.75009406     0.13300
C275        C  0.21695665  0.20462138  0.75048336    -0.30900
C276        C  0.03730516  0.08979706  0.80612153    -0.31200
N277        N  0.25831423  0.08664818  0.82673686     0.13800
H278        H  0.06788448  0.08805221  0.81222155     0.16400
C279        C  0.22387681  0.09345000  0.81097239    -0.31200
H280        H  0.19570424  0.09387313  0.82188108     0.16400
H281        H  0.18716513  0.21552629  0.75100156     0.16400
H282        H  0.06328848  0.08583652  0.68829334     0.16500
H283        H  0.06086927  0.21333807  0.74934331     0.16500
C284        C  0.03888411  0.37379264  0.74757843     0.30300
C285        C  0.20916006  0.37431540  0.74869296     0.30300
C286        C  0.01762798  0.39391894  0.71889082    -0.05900
C287        C  0.01982967  0.33256827  0.74911184    -0.06600
C288        C  0.01938320  0.39491712  0.77527934    -0.06500
C289        C  0.22712995  0.39457800  0.72017444    -0.05900
C290        C  0.22938612  0.33309008  0.74969867    -0.06600
C291        C  0.22904077  0.39548661  0.77545746    -0.06500
C292        C  0.21267389  0.40856150  0.69194561    -0.31900
N293        N  0.24269477  0.41360277  0.67244331     0.14600
C294        C  0.02647855  0.40606119  0.68865313    -0.31900
H295        H  0.05506837  0.40775786  0.67878313     0.16500
C296        C  0.21746694  0.29422161  0.75049169    -0.30900
N297        N  0.24946554  0.26990642  0.75026392     0.13300
C298        C  0.03167539  0.29295877  0.74948117    -0.30100
C299        C  0.21723798  0.41099879  0.80320435    -0.31200
N300        N  0.24906997  0.41799619  0.82116382     0.13800
H301        H  0.18734406  0.41474859  0.81023977     0.16400
C302        C  0.03099352  0.40864453  0.80385440    -0.31200
H303        H  0.06071762  0.40835413  0.81195203     0.16400
H304        H  0.06144440  0.28200194  0.74885881     0.16400
H305        H  0.18238221  0.41175639  0.68503892     0.16500
H306        H  0.18771873  0.28450094  0.75083218     0.16500
C307        C  0.08442825  0.37361257  0.74783636     0.30300
C308        C  0.16420173  0.37373279  0.74865934     0.30300
C309        C  0.10485341  0.35332290  0.72016488    -0.05900
C310        C  0.10343009  0.41514174  0.74767020    -0.06600
C311        C  0.10488712  0.35245302  0.77642812    -0.06500
C312        C  0.14532573  0.35320582  0.72108742    -0.05900
C313        C  0.14389493  0.41473291  0.74804341    -0.06600
C314        C  0.14540637  0.35268354  0.77640012    -0.06500
C315        C  0.15862914  0.33732952  0.69391089    -0.31900
N316        N  0.12772809  0.33001906  0.67545665     0.14600
C317        C  0.09467681  0.33790001  0.69165160    -0.31900
H318        H  0.06553800  0.33400953  0.68298593     0.16500
C319        C  0.15596786  0.45346151  0.74894684    -0.30900
N320        N  0.12408891  0.47784667  0.74928958     0.13300
C321        C  0.09175356  0.45487319  0.74848134    -0.30900
C322        C  0.15866393  0.33797738  0.80473065    -0.31200
N323        N  0.12768300  0.32963841  0.82268843     0.13800
H324        H  0.18860302  0.33668512  0.81276616     0.16400
C325        C  0.09465771  0.33757291  0.80558907    -0.31200
H326        H  0.06548142  0.33501391  0.81449764     0.16400
H327        H  0.06200678  0.46593862  0.74884098     0.16400
H328        H  0.18861699  0.33412885  0.68684621     0.16500
H329        H  0.18575595  0.46303334  0.74967553     0.16500
C330        C  0.08469107  0.12423265  0.75037437     0.30300
C331        C  0.16446272  0.12401530  0.75085222     0.30300
C332        C  0.10362857  0.14527987  0.77741840    -0.05900
C333        C  0.10498832  0.08313367  0.75125973    -0.06600
C334        C  0.10316125  0.14511961  0.72270805    -0.06500
C335        C  0.14410867  0.14483100  0.77852422    -0.05900
C336        C  0.14542743  0.08262726  0.75153399    -0.06600
C337        C  0.14369112  0.14468406  0.72197090    -0.06500
C338        C  0.15383764  0.16034848  0.80721078    -0.31900
N339        N  0.12048444  0.16957992  0.82262230     0.14600
C340        C  0.08994561  0.16199745  0.80398829    -0.31900
H341        H  0.05982727  0.16495566  0.81079721     0.16500
C342        C  0.15709368  0.04289777  0.75112411    -0.30900
N343        N  0.12474817  0.01993567  0.75063436     0.13300
C344        C  0.09288841  0.04436816  0.75078672    -0.30900
C345        C  0.15276575  0.15760501  0.69192008    -0.31200
N346        N  0.11904658  0.16539636  0.67563662     0.13800
H347        H  0.18137149  0.15916423  0.68204044     0.16400
C348        C  0.08891399  0.15970617  0.69480990    -0.31200
H349        H  0.05865799  0.16222868  0.68768146     0.16400
H350        H  0.06309654  0.03480130  0.75012813     0.16400
H351        H  0.18276051  0.16320636  0.81675422     0.16500
H352        H  0.18683858  0.03183288  0.75070918     0.16500
C353        C  0.03010346  0.44758954  0.90192900    -0.26000
C354        C  0.24587791  0.44309150  0.91901034    -0.14100
C355        C  0.21247766  0.42952402  0.90375736     0.36600
C356        C  0.21439744  0.42044059  0.87184300    -0.25400
C357        C  0.24831565  0.42726838  0.85414396    -0.14700
C358        C  0.03118014  0.44235884  0.86966308     0.37700
N359        N  0.06505928  0.45413131  0.85273274    -0.88900
H360        H  0.05589375  0.45771464  0.91351281     0.18800
H361        H  0.18901646  0.40806846  0.86102583     0.18800
N362        N  0.17688531  0.42494713  0.92058928    -0.87900
H363        H  0.08643721  0.46483841  0.86769159     0.36100
H364        H  0.05671265  0.47774171  0.83759677     0.41200
H365        H  0.18152494  0.40225600  0.93744888     0.40900
H366        H  0.15481581  0.41560338  0.90569413     0.35800
C367        C  0.21739325  0.45560517  0.62934192    -0.26000
C368        C  0.23765061  0.42110305  0.63949231    -0.14100
C369        C  0.99858540  0.39263009  0.61729418     0.36600
C370        C  0.99522694  0.40225005  0.58537958    -0.25400
C371        C  0.22783626  0.43840552  0.57516661    -0.14700
C372        C  0.21159711  0.46427306  0.59741044     0.37700
N373        N  0.19214778  0.50085401  0.58759860    -0.88900
H374        H  0.20687085  0.47623257  0.64651603     0.18800
H375        H  0.00685241  0.38178765  0.56851591     0.18800
N376        N  0.01172311  0.35340280  0.62646734    -0.87900
H377        H  0.18440145  0.51760357  0.60689234     0.36100
H378        H  0.16613384  0.49344397  0.57655185     0.41200
H379        H  0.99042721  0.34052818  0.64045810     0.40900
H380        H  0.03692793  0.35571538  0.63977603     0.35800
C381        C  0.04768035  0.06161710  0.87164130    -0.26000
C382        C  0.26572134  0.08447267  0.85997217    -0.14100
C383        C  0.24565593  0.10927730  0.88067324     0.36600
C384        C  0.25145639  0.10344060  0.91299394    -0.25400
C385        C  0.27977091  0.07609208  0.92481259    -0.14700
C386        C  0.05620642  0.05885187  0.90373031     0.37700
N387        N  0.09155914  0.03907702  0.91458199    -0.88900
H388        H  0.06606258  0.04564418  0.85566047     0.18800
H389        H  0.23276731  0.11909462  0.92901320     0.18800
N390        N  0.22068029  0.14101597  0.86886937    -0.87900
H391        H  0.10905060  0.03145859  0.89573795     0.36100
H392        H  0.08471977  0.01236581  0.92577345     0.41200
H393        H  0.23790039  0.16040427  0.85581838     0.40900
H394        H  0.20981983  0.15762133  0.88727675     0.35800
C395        C  0.24816149  0.09660803  0.59001267    -0.26000
C396        C  0.26695682  0.06153207  0.58074204    -0.14100
C397        C  0.03327530  0.03506605  0.60374495     0.36600
C398        C  0.02628846  0.04160111  0.63527818    -0.25400
C399        C  0.25579565  0.07554880  0.64456643    -0.14700
C400        C  0.24504762  0.10524025  0.62176998     0.37700
N401        N  0.23488818  0.14531730  0.62983207    -0.88900
H402        H  0.23729808  0.11802125  0.57251324     0.18800
H403        H  0.03741360  0.02032894  0.65278889     0.18800
N404        N  0.05618861  0.00096804  0.59522407    -0.87900
H405        H  0.95627253  0.15153905  0.62270197     0.36100
H406        H  0.98711799  0.14946079  0.65379949     0.41200
H407        H  0.29379562  0.97551033  0.60495867     0.40900
H408        H  0.33387205  0.00345091  0.60524779     0.35800
C409        C  0.16105315  0.28835552  0.90080211    -0.26000
C410        C  0.13715954  0.30970848  0.92121252    -0.14100
C411        C  0.11091079  0.33893255  0.90863815     0.36600
C412        C  0.10779655  0.34493173  0.87612037    -0.25400
C413        C  0.13039185  0.32211852  0.85583316    -0.14700
C414        C  0.15763885  0.29406649  0.86839468     0.37700
N415        N  0.18066246  0.27001513  0.84818948    -0.88900
H416        H  0.18061140  0.26497946  0.90981901     0.18800
H417        H  0.08768607  0.36749608  0.86665670     0.18800
N418        N  0.08704791  0.36219205  0.92878615    -0.87900
H419        H  0.17492162  0.24013235  0.85319383     0.36100
H420        H  0.20998258  0.27459140  0.85338803     0.41200
H421        H  0.05793862  0.35795135  0.92266381     0.40900
H422        H  0.09307159  0.39217736  0.92467369     0.35800
C423        C  0.11788264  0.33800069  0.58791858    -0.26000
C424        C  0.13823723  0.30356506  0.57912446    -0.14100
C425        C  0.15782353  0.27973452  0.60242813     0.36600
C426        C  0.15305127  0.28869496  0.63399690    -0.25400
C427        C  0.13107711  0.32197322  0.64279016    -0.14700
C428        C  0.11647843  0.34892443  0.61927737     0.37700
N429        N  0.10189654  0.38808006  0.62618023    -0.88900
H430        H  0.10388718  0.35712519  0.57019659     0.18800
H431        H  0.16633091  0.26951015  0.65201529     0.18800
N432        N  0.18162570  0.24595504  0.59423342    -0.87900
H433        H  0.11775786  0.40851085  0.61295171     0.36100
H434        H  0.10824493  0.39477440  0.64926864     0.41200
H435        H  0.16339323  0.22453544  0.58537406     0.40900
H436        H  0.19505576  0.23287384  0.61408975     0.35800
C437        C  0.13058627  0.14732157  0.87710790    -0.26000
C438        C  0.11604216  0.17593631  0.85536774    -0.14100
C439        C  0.09252110  0.20766863  0.86560292     0.36600
C440        C  0.08616067  0.21172159  0.89765010    -0.25400
C441        C  0.10326427  0.18484703  0.91970905    -0.14700
C442        C  0.12513788  0.15186964  0.90932337     0.37700
N443        N  0.14232433  0.12374484  0.93152605    -0.88900
H444        H  0.14620321  0.12143070  0.86880195     0.18800
H445        H  0.06989594  0.23750198  0.90550250     0.18800
N446        N  0.07550776  0.23574548  0.84326391    -0.87900
H447        H  0.15745102  0.10121388  0.92004933     0.36100
H448        H  0.11967365  0.11014559  0.94353612     0.41200
H449        H  0.09814126  0.24960773  0.83145958     0.40900
H450        H  0.05985896  0.25807823  0.85455043     0.35800
C451        C  0.12117506  0.14748997  0.58951484    -0.26000
C452        C  0.09855327  0.18000556  0.57800982    -0.14100
C453        C  0.08027315  0.20553752  0.59940228     0.36600
C454        C  0.08854749  0.20085951  0.63128803    -0.25400
C455        C  0.11354130  0.17031211  0.64255391    -0.14700
C456        C  0.12736511  0.14145080  0.62182364     0.37700
N457        N  0.14714461  0.10608760  0.63369749    -0.88900
H458        H  0.13481069  0.12748488  0.57326365     0.18800
H459        H  0.07574195  0.22152848  0.64746315     0.18800
N460        N  0.05520337  0.23785885  0.58882003    -0.87900
H461        H  0.15535823  0.08786652  0.61537668     0.36100
H462        H  0.12727975  0.09005978  0.64705511     0.41200
H463        H  0.06660556  0.26436065  0.59680432     0.40900
H464        H  0.02806035  0.23420310  0.59915754     0.35800
O465        O  0.16140569  0.77286310  0.46602336    -0.72600
O466        O  0.13711387  0.69289762  0.03362157    -0.73600
O467        O  0.13850639  0.69496054  0.46637054    -0.62200
O468        O  0.16160774  0.77029308  0.03424811    -0.70600
O469        O  0.09985055  0.79097785  0.03405397    -0.70200
O470        O  0.07736711  0.71766525  0.46383872    -0.61400
O471        O  0.07534989  0.71362311  0.03175042    -0.73900
O472        O  0.10022269  0.79522202  0.46640086    -0.72700
Cu473      Cu  0.15176722  0.73208787  0.00009957     1.04600
Cu474      Cu  0.08608247  0.75502990  0.49899488     1.04300
C475        C  0.13346675  0.79368028  0.45352481     0.93600
C476        C  0.10314517  0.69409029  0.04541864     0.92700
C477        C  0.10566989  0.69780156  0.45227705     0.84900
C478        C  0.13356052  0.78906758  0.04700899     0.91100
O479        O  0.23223337  0.55126458  0.03336911    -0.72600
O480        O  0.21605163  0.97838955  0.46095153    -0.73600
O481        O  0.20842856  0.97382724  0.02866405    -0.62200
O482        O  0.23867899  0.55686346  0.46615673    -0.70600
O483        O  0.05026774  0.53630614  0.46960616    -0.70200
O484        O  0.02016834  0.95354389  0.03349398    -0.61400
O485        O  0.02760889  0.95801162  0.46646822    -0.73900
O486        O  0.04405310  0.53086585  0.03660395    -0.72700
Cu487      Cu  0.22170072  0.51580313  0.99707819     1.04600
Cu488      Cu  0.03756131  0.49398407  0.00161641     1.04300
C489        C  0.26485804  0.54911228  0.04805095     0.93600
C490        C  0.24569658  0.95905856  0.45094954     0.92700
C491        C  0.23521855  0.95405390  0.04338800     0.84900
C492        C  0.27337388  0.55717454  0.45587016     0.91100
C493        C  0.21004681  0.62362292  0.25113824     0.30300
C494        C  0.03974572  0.62362007  0.25022938     0.30300
C495        C  0.22984226  0.60333117  0.22288108    -0.05900
C496        C  0.22890249  0.66500262  0.25037409    -0.06600
C497        C  0.23147410  0.60270396  0.27971455    -0.06500
C498        C  0.02036407  0.60313279  0.22322561    -0.05900
C499        C  0.01930920  0.66467489  0.24991890    -0.06600
C500        C  0.02195218  0.60207410  0.27799083    -0.06500
C501        C  0.03338409  0.58844191  0.19571681    -0.31900
N502        N  0.25230560  0.58208556  0.17733340     0.14600
C503        C  0.21934567  0.58958357  0.19374831    -0.31900
H504        H  0.19019940  0.58719979  0.18450488     0.16500
C505        C  0.03114230  0.70355022  0.24964606    -0.30900
N506        N  0.24911576  0.72777040  0.25009331     0.13300
C507        C  0.21695598  0.70462109  0.25048266    -0.30900
C508        C  0.03730459  0.58979761  0.30612115    -0.31200
N509        N  0.25831389  0.58664907  0.32673662     0.13800
H510        H  0.06788393  0.58805269  0.31222108     0.16400
C511        C  0.22387639  0.59345067  0.31097218    -0.31200
H512        H  0.19570384  0.59387386  0.32188090     0.16400
H513        H  0.18716444  0.71552594  0.25100111     0.16400
H514        H  0.06328762  0.58583581  0.18829279     0.16500
H515        H  0.06086854  0.71333798  0.24934245     0.16500
C516        C  0.03888288  0.87379258  0.24757913     0.30300
C517        C  0.20915880  0.87431482  0.24869357     0.30300
C518        C  0.01762672  0.89391872  0.21889150    -0.05900
C519        C  0.01982862  0.83256805  0.24911244    -0.06600
C520        C  0.01938181  0.89491690  0.27528007    -0.06500
C521        C  0.22712863  0.89457743  0.22017499    -0.05900
C522        C  0.22938502  0.83308963  0.24969924    -0.06600
C523        C  0.22903935  0.89548606  0.27545813    -0.06500
C524        C  0.21267255  0.90856022  0.19194596    -0.31900
N525        N  0.24269347  0.91360163  0.17244372     0.14600
C526        C  0.02647725  0.90606053  0.18865369    -0.31900
H527        H  0.05506708  0.90775742  0.17878374     0.16500
C528        C  0.21746598  0.79422114  0.25049173    -0.30900
N529        N  0.24946470  0.76990613  0.25026365     0.13300
C530        C  0.03167446  0.79295860  0.24948134    -0.30100
C531        C  0.21723639  0.91099801  0.30320508    -0.31200
N532        N  0.24906826  0.91799581  0.32116454     0.13800
H533        H  0.18734245  0.91474748  0.31024052     0.16400
C534        C  0.03099196  0.90864450  0.30385512    -0.31200
H535        H  0.06071608  0.90835446  0.31195270     0.16400
H536        H  0.06144350  0.78200189  0.24885875     0.16400
H537        H  0.18238089  0.91175482  0.18503916     0.16500
H538        H  0.18771778  0.78450036  0.25083196     0.16500
C539        C  0.08442700  0.87361271  0.24783707     0.30300
C540        C  0.16420048  0.87373231  0.24865999     0.30300
C541        C  0.10485201  0.85332296  0.22016557    -0.05900
C542        C  0.10342915  0.91514180  0.24767109    -0.06600
C543        C  0.10488572  0.85245295  0.27642875    -0.06500
C544        C  0.14532432  0.85320556  0.22108806    -0.05900
C545        C  0.14389400  0.91473260  0.24804425    -0.06600
C546        C  0.14540499  0.85268305  0.27640070    -0.06500
C547        C  0.15862758  0.83732836  0.19391181    -0.31900
N548        N  0.12772642  0.83001762  0.17545776     0.14600
C549        C  0.09467523  0.83789937  0.19165259    -0.31900
H550        H  0.06553637  0.83400909  0.18298692     0.16500
C551        C  0.15596739  0.95346105  0.24894797    -0.30900
N552        N  0.12408874  0.97784656  0.24929093     0.13300
C553        C  0.09175310  0.95487339  0.24848263    -0.30900
C554        C  0.15866243  0.83797666  0.30473116    -0.31200
N555        N  0.12768139  0.82963815  0.32268900     0.13800
H556        H  0.18860154  0.83668416  0.31276663     0.16400
C557        C  0.09465615  0.83757307  0.30558969    -0.31200
H558        H  0.06547982  0.83501451  0.31449827     0.16400
H559        H  0.06200642  0.96593910  0.24884240     0.16400
H560        H  0.18861542  0.83412726  0.18684717     0.16500
H561        H  0.18575559  0.96303256  0.24967659     0.16500
C562        C  0.08469035  0.62423251  0.25037370     0.30300
C563        C  0.16446203  0.62401529  0.25085166     0.30300
C564        C  0.10362775  0.64527993  0.27741769    -0.05900
C565        C  0.10498769  0.58313356  0.25125915    -0.06600
C566        C  0.10316059  0.64511938  0.22270737    -0.06500
C567        C  0.14410788  0.64483106  0.27852360    -0.05900
C568        C  0.14542680  0.58262729  0.25153339    -0.06600
C569        C  0.14369048  0.64468394  0.22197027    -0.06500
C570        C  0.15383674  0.66034881  0.30721009    -0.31900
N571        N  0.12048346  0.66958045  0.32262146     0.14600
C572        C  0.08994466  0.66199787  0.30398742    -0.31900
H573        H  0.05982627  0.66495628  0.31079621     0.16500
C574        C  0.15709329  0.54289795  0.25112300    -0.30900
N575        N  0.12474794  0.51993570  0.25063314     0.13300
C576        C  0.09288800  0.54436796  0.25078581    -0.30900
C577        C  0.15276512  0.65760478  0.19191941    -0.31200
N578        N  0.11904593  0.66539597  0.17563591     0.13800
H579        H  0.18137087  0.65916390  0.18203975     0.16400
C580        C  0.08891334  0.65970574  0.19480918    -0.31200
H581        H  0.05865734  0.66222800  0.18768070     0.16400
H582        H  0.06309620  0.53480086  0.25012713     0.16400
H583        H  0.18275957  0.66320675  0.31675363     0.16500
H584        H  0.18683823  0.53183325  0.25070777     0.16500
C585        C  0.03010155  0.94758997  0.40192961    -0.26000
C586        C  0.24587613  0.94309214  0.41901096    -0.14100
C587        C  0.21247582  0.92952461  0.40375806     0.36600
C588        C  0.21439559  0.92044085  0.37184373    -0.25400
C589        C  0.24831383  0.92726836  0.35414463    -0.14700
C590        C  0.03117825  0.94235900  0.36966374     0.37700
N591        N  0.06505738  0.95413142  0.35273339    -0.88900
H592        H  0.05589183  0.95771525  0.41351333     0.18800
H593        H  0.18901458  0.90806872  0.36102662     0.18800
N594        N  0.17688346  0.92494787  0.42059000    -0.87900
H595        H  0.08643527  0.96483868  0.36769218     0.36100
H596        H  0.05671069  0.97774164  0.33759724     0.41200
H597        H  0.18152317  0.90225694  0.43744977     0.40900
H598        H  0.15481401  0.91560379  0.40569497     0.35800
C599        C  0.21739288  0.95560517  0.12934273    -0.26000
C600        C  0.23764946  0.92110247  0.13949279    -0.14100
C601        C  0.99858371  0.89262965  0.11729446     0.36600
C602        C  0.99522565  0.90225033  0.08537991    -0.25400
C603        C  0.22783596  0.93840646  0.07516727    -0.14700
C604        C  0.21159718  0.96427386  0.09741134     0.37700
N605        N  0.19214852  0.00085533  0.08759989    -0.88900
H606        H  0.20687069  0.97623237  0.14651705     0.18800
H607        H  0.00685071  0.88178796  0.06851605     0.18800
N608        N  0.01172060  0.85340196  0.12646732    -0.87900
H609        H  0.18440241  0.01760462  0.10689382     0.36100
H610        H  0.16613444  0.99344594  0.07655303     0.41200
H611        H  0.99042405  0.84052743  0.14045753     0.40900
H612        H  0.03692506  0.85571370  0.13977655     0.35800
C613        C  0.04768006  0.56161770  0.37164095    -0.26000
C614        C  0.26572107  0.58447323  0.35997196    -0.14100
C615        C  0.24565533  0.60927724  0.38067329     0.36600
C616        C  0.25145577  0.60344008  0.41299395    -0.25400
C617        C  0.27977053  0.57609171  0.42481239    -0.14700
C618        C  0.05620607  0.55885203  0.40372997     0.37700
N619        N  0.09155886  0.53907716  0.41458151    -0.88900
H620        H  0.06606241  0.54564512  0.35565999     0.18800
H621        H  0.23276651  0.61909364  0.42901336     0.18800
N622        N  0.22067920  0.64101568  0.36886974    -0.87900
H623        H  0.10905008  0.53145851  0.39573739     0.36100
H624        H  0.08471960  0.51236607  0.42577319     0.41200
H625        H  0.23789902  0.66040453  0.35581899     0.40900
H626        H  0.20981844  0.65762051  0.38727730     0.35800
C627        C  0.24816043  0.59660695  0.09001246    -0.26000
C628        C  0.26695551  0.56153088  0.08074180    -0.14100
C629        C  0.03327395  0.53506469  0.10374467     0.36600
C630        C  0.02628705  0.54159967  0.13527790    -0.25400
C631        C  0.25579442  0.57554754  0.14456620    -0.14700
C632        C  0.24504690  0.60523923  0.12176978     0.37700
N633        N  0.23488878  0.64531657  0.12983198    -0.88900
H634        H  0.23729730  0.61802036  0.07251304     0.18800
H635        H  0.03741205  0.52032739  0.15278859     0.18800
N636        N  0.05618757  0.50096690  0.09522374    -0.87900
H637        H  0.95627350  0.65153949  0.12270153     0.36100
H638        H  0.98711832  0.64945989  0.15379940     0.41200
H639        H  0.29379486  0.47550918  0.10495842     0.40900
H640        H  0.33387095  0.50345013  0.10524750     0.35800
C641        C  0.16105257  0.78835725  0.40080296    -0.26000
C642        C  0.13715834  0.80970975  0.42121319    -0.14100
C643        C  0.11090859  0.83893275  0.40863857     0.36600
C644        C  0.10779424  0.84493145  0.37612076    -0.25400
C645        C  0.13039019  0.82211861  0.35583376    -0.14700
C646        C  0.15763785  0.79406742  0.36839550     0.37700
N647        N  0.18066172  0.77001601  0.34819054    -0.88900
H648        H  0.18061157  0.76498193  0.40981999     0.18800
H649        H  0.08768316  0.86749514  0.36665692     0.18800
N650        N  0.08704493  0.86219172  0.42878634    -0.87900
H651        H  0.17492149  0.74013322  0.35319542     0.36100
H652        H  0.20998177  0.77459303  0.35338885     0.41200
H653        H  0.05793581  0.85795007  0.42266397     0.40900
H654        H  0.09306781  0.89217718  0.42467368     0.35800
C655        C  0.11788044  0.83799931  0.08791983    -0.26000
C656        C  0.13823536  0.80356395  0.07912554    -0.14100
C657        C  0.15782165  0.77973324  0.10242912     0.36600
C658        C  0.15304921  0.78869333  0.13399795    -0.25400
C659        C  0.13107517  0.82197163  0.14279131    -0.14700
C660        C  0.11647629  0.84892286  0.11927864     0.37700
N661        N  0.10189431  0.88807841  0.12618173    -0.88900
H662        H  0.10388491  0.85712390  0.07019794     0.18800
H663        H  0.16632880  0.76950839  0.15201629     0.18800
N664        N  0.18162422  0.74595412  0.09423426    -0.87900
H665        H  0.11775496  0.90850934  0.11295276     0.36100
H666        H  0.10824380  0.89477300  0.14926987     0.41200
H667        H  0.16339206  0.72453451  0.08537447     0.40900
H668        H  0.19505407  0.73287270  0.11409056     0.35800
C669        C  0.13058488  0.64732204  0.37710709    -0.26000
C670        C  0.11604120  0.67593696  0.35536688    -0.14100
C671        C  0.09252082  0.70766977  0.36560206     0.36600
C672        C  0.08616072  0.71172302  0.39764926    -0.25400
C673        C  0.10326406  0.68484832  0.41970825    -0.14700
C674        C  0.12513687  0.65187041  0.40932258     0.37700
N675        N  0.14232294  0.62374543  0.43152529    -0.88900
H676        H  0.14620133  0.62143085  0.36880116     0.18800
H677        H  0.06989643  0.73750370  0.40550165     0.18800
N678        N  0.07550781  0.73574678  0.34326302    -0.87900
H679        H  0.15744920  0.60121412  0.42004860     0.36100
H680        H  0.11967210  0.61014674  0.44353554     0.41200
H681        H  0.09814145  0.74960847  0.33145846     0.40900
H682        H  0.05985955  0.75807991  0.35454955     0.35800
C683        C  0.12117557  0.64748978  0.08951411    -0.26000
C684        C  0.09855277  0.68000460  0.07800900    -0.14100
C685        C  0.08027156  0.70553583  0.09940141     0.36600
C686        C  0.08854582  0.70085801  0.13128719    -0.25400
C687        C  0.11354059  0.67031146  0.14255317    -0.14700
C688        C  0.12736555  0.64145069  0.12182293     0.37700
N689        N  0.14714630  0.60608821  0.13369678    -0.88900
H690        H  0.13481218  0.62748533  0.07326295     0.18800
H691        H  0.07573952  0.72152656  0.14746225     0.18800
N692        N  0.05520079  0.73785635  0.08881910    -0.87900
H693        H  0.15536051  0.58786739  0.11537596     0.36100
H694        H  0.12728214  0.59005963  0.14705451     0.41200
H695        H  0.06660204  0.76435856  0.09680343     0.40900
H696        H  0.02805782  0.73419968  0.09915650     0.35800
O697        O  0.16140577  0.77286317  0.96602337    -0.72600
O698        O  0.13711383  0.69289741  0.53362152    -0.73600
O699        O  0.13850642  0.69496050  0.96637060    -0.62200
O700        O  0.16160767  0.77029288  0.53424816    -0.70600
O701        O  0.09985053  0.79097785  0.53405390    -0.70200
O702        O  0.07736721  0.71766534  0.96383874    -0.61400
O703        O  0.07534987  0.71362301  0.53175039    -0.73900
O704        O  0.10022277  0.79522202  0.96640087    -0.72700
Cu705      Cu  0.15176719  0.73208776  0.50009955     1.04600
Cu706      Cu  0.08608257  0.75502994  0.99899491     1.04300
C707        C  0.13346683  0.79368032  0.95352482     0.93600
C708        C  0.10314513  0.69409015  0.54541859     0.92700
C709        C  0.10566994  0.69780156  0.95227709     0.84900
C710        C  0.13356047  0.78906749  0.54700899     0.91100
O711        O  0.23223345  0.55126461  0.53336910    -0.72600
O712        O  0.21605165  0.97838963  0.96095154    -0.73600
O713        O  0.20842851  0.97382715  0.52866405    -0.62200
O714        O  0.23867884  0.55686348  0.96615678    -0.70600
O715        O  0.05026769  0.53630601  0.96960616    -0.70200
O716        O  0.02016840  0.95354377  0.53349399    -0.61400
O717        O  0.02760892  0.95801174  0.96646819    -0.73900
O718        O  0.04405317  0.53086594  0.53660393    -0.72700
Cu719      Cu  0.22170082  0.51580317  0.49707820     1.04600
Cu720      Cu  0.03756133  0.49398420  0.50161638     1.04300
C721        C  0.26485811  0.54911227  0.54805096     0.93600
C722        C  0.24569658  0.95905866  0.95094951     0.92700
C723        C  0.23521849  0.95405381  0.54338801     0.84900
C724        C  0.27337372  0.55717448  0.95587017     0.91100
C725        C  0.21004676  0.62362294  0.75113819     0.30300
C726        C  0.03974569  0.62362006  0.75022939     0.30300
C727        C  0.22984224  0.60333119  0.72288101    -0.05900
C728        C  0.22890244  0.66500264  0.75037405    -0.06600
C729        C  0.23147403  0.60270403  0.77971452    -0.06500
C730        C  0.02036405  0.60313276  0.72322561    -0.05900
C731        C  0.01930915  0.66467488  0.74991890    -0.06600
C732        C  0.02195213  0.60207411  0.77799084    -0.06500
C733        C  0.03338407  0.58844191  0.69571679    -0.31900
N734        N  0.25230558  0.58208562  0.67733333     0.14600
C735        C  0.21934565  0.58958360  0.69374824    -0.31900
H736        H  0.19019939  0.58719978  0.68450478     0.16500
C737        C  0.03114225  0.70355019  0.74964603    -0.30900
N738        N  0.24911573  0.72777041  0.75009334     0.13300
C739        C  0.21695594  0.70462111  0.75048267    -0.30900
C740        C  0.03730454  0.58979752  0.80612114    -0.31200
N741        N  0.25831374  0.58664910  0.82673662     0.13800
H742        H  0.06788388  0.58805256  0.81222108     0.16400
C743        C  0.22387626  0.59345072  0.81097214    -0.31200
H744        H  0.19570368  0.59387385  0.82188080     0.16400
H745        H  0.18716440  0.71552596  0.75100111     0.16400
H746        H  0.06328760  0.58583590  0.68829276     0.16500
H747        H  0.06086852  0.71333786  0.74934249     0.16500
C748        C  0.03888286  0.87379260  0.74757912     0.30300
C749        C  0.20915883  0.87431481  0.74869356     0.30300
C750        C  0.01762667  0.89391878  0.71889151    -0.05900
C751        C  0.01982862  0.83256809  0.74911242    -0.06600
C752        C  0.01938178  0.89491689  0.77528005    -0.06500
C753        C  0.22712864  0.89457748  0.72017503    -0.05900
C754        C  0.22938506  0.83308963  0.74969923    -0.06600
C755        C  0.22903938  0.89548602  0.77545812    -0.06500
C756        C  0.21267255  0.90856023  0.69194600    -0.31900
N757        N  0.24269345  0.91360149  0.67244373     0.14600
C758        C  0.02647720  0.90606044  0.68865367    -0.31900
H759        H  0.05506702  0.90775717  0.67878369     0.16500
C760        C  0.21746601  0.79422117  0.75049175    -0.30900
N761        N  0.24946471  0.76990613  0.75026367     0.13300
C762        C  0.03167448  0.79295864  0.74948119    -0.30100
C763        C  0.21723640  0.91099805  0.80320502    -0.31200
N764        N  0.24906827  0.91799583  0.82116449     0.13800
H765        H  0.18734245  0.91474761  0.81024040     0.16400
C766        C  0.03099192  0.90864450  0.80385507    -0.31200
H767        H  0.06071604  0.90835443  0.81195263     0.16400
H768        H  0.06144351  0.78200195  0.74885856     0.16400
H769        H  0.18238089  0.91175483  0.68503920     0.16500
H770        H  0.18771780  0.78450043  0.75083198     0.16500
C771        C  0.08442699  0.87361269  0.74783708     0.30300
C772        C  0.16420049  0.87373229  0.74865998     0.30300
C773        C  0.10485197  0.85332288  0.72016561    -0.05900
C774        C  0.10342916  0.91514178  0.74767107    -0.06600
C775        C  0.10488574  0.85245293  0.77642877    -0.06500
C776        C  0.14532429  0.85320551  0.72108808    -0.05900
C777        C  0.14389402  0.91473258  0.74804420    -0.06600
C778        C  0.14540501  0.85268306  0.77640072    -0.06500
C779        C  0.15862756  0.83732841  0.69391181    -0.31900
N780        N  0.12772639  0.83001762  0.67545778     0.14600
C781        C  0.09467519  0.83789929  0.69165262    -0.31900
H782        H  0.06553633  0.83400899  0.68298694     0.16500
C783        C  0.15596741  0.95346103  0.74894795    -0.30900
N784        N  0.12408876  0.97784655  0.74929096     0.13300
C785        C  0.09175313  0.95487339  0.74848265    -0.30900
C786        C  0.15866246  0.83797672  0.80473120    -0.31200
N787        N  0.12768144  0.82963811  0.82268901     0.13800
H788        H  0.18860158  0.83668423  0.81276667     0.16400
C789        C  0.09465619  0.83757298  0.80558970    -0.31200
H790        H  0.06547986  0.83501436  0.81449828     0.16400
H791        H  0.06200647  0.96593913  0.74884247     0.16400
H792        H  0.18861541  0.83412738  0.68684717     0.16500
H793        H  0.18575561  0.96303253  0.74967662     0.16500
C794        C  0.08469032  0.62423253  0.75037372     0.30300
C795        C  0.16446199  0.62401531  0.75085166     0.30300
C796        C  0.10362773  0.64527993  0.77741770    -0.05900
C797        C  0.10498764  0.58313359  0.75125916    -0.06600
C798        C  0.10316055  0.64511944  0.72270740    -0.06500
C799        C  0.14410785  0.64483108  0.77852360    -0.05900
C800        C  0.14542674  0.58262733  0.75153339    -0.06600
C801        C  0.14369045  0.64468395  0.72197028    -0.06500
C802        C  0.15383670  0.66034888  0.80721008    -0.31900
N803        N  0.12048344  0.66958052  0.82262146     0.14600
C804        C  0.08994466  0.66199789  0.80398742    -0.31900
H805        H  0.05982628  0.66495627  0.81079620     0.16500
C806        C  0.15709320  0.54289801  0.75112303    -0.30900
N807        N  0.12474787  0.51993575  0.75063316     0.13300
C808        C  0.09288792  0.54436800  0.75078583    -0.30900
C809        C  0.15276512  0.65760469  0.69191939    -0.31200
N810        N  0.11904592  0.66539592  0.67563591     0.13800
H811        H  0.18137088  0.65916376  0.68203974     0.16400
C812        C  0.08891332  0.65970576  0.69480920    -0.31200
H813        H  0.05865731  0.66222805  0.68768074     0.16400
H814        H  0.06309611  0.53480093  0.75012715     0.16400
H815        H  0.18275953  0.66320679  0.81675363     0.16500
H816        H  0.18683814  0.53183334  0.75070779     0.16500
C817        C  0.03010162  0.94758987  0.90192956    -0.26000
C818        C  0.24587608  0.94309228  0.91901090    -0.14100
C819        C  0.21247575  0.92952473  0.90375801     0.36600
C820        C  0.21439552  0.92044094  0.87184366    -0.25400
C821        C  0.24831381  0.92726837  0.85414457    -0.14700
C822        C  0.03117830  0.94235889  0.86966369     0.37700
N823        N  0.06505746  0.95413128  0.85273335    -0.88900
H824        H  0.05589194  0.95771509  0.91351325     0.18800
H825        H  0.18901450  0.90806879  0.86102655     0.18800
N826        N  0.17688344  0.92494794  0.92059000    -0.87900
H827        H  0.08643541  0.96483839  0.86769218     0.36100
H828        H  0.05671087  0.97774161  0.83759728     0.41200
H829        H  0.18152318  0.90225703  0.93744978     0.40900
H830        H  0.15481395  0.91560386  0.90569499     0.35800
C831        C  0.21739282  0.95560502  0.62934276    -0.26000
C832        C  0.23764938  0.92110230  0.63949281    -0.14100
C833        C  0.99858368  0.89262954  0.61729442     0.36600
C834        C  0.99522565  0.90225026  0.58537988    -0.25400
C835        C  0.22783586  0.93840633  0.57516729    -0.14700
C836        C  0.21159705  0.96427371  0.59741137     0.37700
N837        N  0.19214856  0.00085528  0.58759995    -0.88900
H838        H  0.20687078  0.97623229  0.64651710     0.18800
H839        H  0.00685072  0.88178792  0.56851601     0.18800
N840        N  0.01172038  0.85340177  0.62646723    -0.87900
H841        H  0.18440249  0.01760457  0.60689388     0.36100
H842        H  0.16613446  0.99344609  0.57655300     0.41200
H843        H  0.99042386  0.84052733  0.64045745     0.40900
H844        H  0.03692496  0.85571335  0.63977642     0.35800
C845        C  0.04767993  0.56161757  0.87164097    -0.26000
C846        C  0.26572090  0.58447321  0.85997196    -0.14100
C847        C  0.24565526  0.60927728  0.88067327     0.36600
C848        C  0.25145565  0.60344010  0.91299393    -0.25400
C849        C  0.27977037  0.57609166  0.92481240    -0.14700
C850        C  0.05620597  0.55885193  0.90372999     0.37700
N851        N  0.09155872  0.53907695  0.91458153    -0.88900
H852        H  0.06606221  0.54564487  0.85566002     0.18800
H853        H  0.23276639  0.61909368  0.92901331     0.18800
N854        N  0.22067926  0.64101579  0.86886964    -0.87900
H855        H  0.10904991  0.53145823  0.89573740     0.36100
H856        H  0.08471940  0.51236589  0.92577321     0.41200
H857        H  0.23789916  0.66040457  0.85581892     0.40900
H858        H  0.20981841  0.65762066  0.88727717     0.35800
C859        C  0.24816049  0.59660701  0.59001239    -0.26000
C860        C  0.26695559  0.56153093  0.58074176    -0.14100
C861        C  0.03327406  0.53506476  0.60374465     0.36600
C862        C  0.02628711  0.54159971  0.63527788    -0.25400
C863        C  0.25579438  0.57554758  0.64456613    -0.14700
C864        C  0.24504688  0.60523927  0.62176970     0.37700
N865        N  0.23488858  0.64531660  0.62983183    -0.88900
H866        H  0.23729735  0.61802041  0.57251298     0.18800
H867        H  0.03741213  0.52032745  0.65278858     0.18800
N868        N  0.05618780  0.50096706  0.59522375    -0.87900
H869        H  0.95627348  0.65153940  0.62270140     0.36100
H870        H  0.98711825  0.64945986  0.65379934     0.41200
H871        H  0.29379493  0.47550924  0.60495840     0.40900
H872        H  0.33387101  0.50345021  0.60524752     0.35800
C873        C  0.16105266  0.78835725  0.90080299    -0.26000
C874        C  0.13715843  0.80970979  0.92121321    -0.14100
C875        C  0.11090864  0.83893273  0.90863857     0.36600
C876        C  0.10779425  0.84493136  0.87612076    -0.25400
C877        C  0.13039021  0.82211851  0.85583377    -0.14700
C878        C  0.15763788  0.79406732  0.86839553     0.37700
N879        N  0.18066175  0.77001586  0.84819058    -0.88900
H880        H  0.18061170  0.76498198  0.90982006     0.18800
H881        H  0.08768313  0.86749501  0.86665693     0.18800
N882        N  0.08704489  0.86219165  0.92878632    -0.87900
H883        H  0.17492159  0.74013307  0.85319553     0.36100
H884        H  0.20998181  0.77459293  0.85338884     0.41200
H885        H  0.05793580  0.85794991  0.92266395     0.40900
H886        H  0.09306771  0.89217714  0.92467368     0.35800
C887        C  0.11788039  0.83799927  0.58791983    -0.26000
C888        C  0.13823528  0.80356389  0.57912555    -0.14100
C889        C  0.15782159  0.77973321  0.60242914     0.36600
C890        C  0.15304922  0.78869335  0.63399796    -0.25400
C891        C  0.13107512  0.82197162  0.64279133    -0.14700
C892        C  0.11647616  0.84892282  0.61927865     0.37700
N893        N  0.10189416  0.88807835  0.62618175    -0.88900
H894        H  0.10388493  0.85712387  0.57019790     0.18800
H895        H  0.16632888  0.76950843  0.65201628     0.18800
N896        N  0.18162407  0.74595402  0.59423427    -0.87900
H897        H  0.11775479  0.90850928  0.61295276     0.36100
H898        H  0.10824366  0.89477296  0.64926988     0.41200
H899        H  0.16339188  0.72453443  0.58537454     0.40900
H900        H  0.19505396  0.73287261  0.61409059     0.35800
C901        C  0.13058490  0.64732207  0.87710708    -0.26000
C902        C  0.11604117  0.67593699  0.85536689    -0.14100
C903        C  0.09252083  0.70766982  0.86560209     0.36600
C904        C  0.08616077  0.71172306  0.89764930    -0.25400
C905        C  0.10326409  0.68484832  0.91970828    -0.14700
C906        C  0.12513690  0.65187041  0.90932258     0.37700
N907        N  0.14232297  0.62374539  0.93152528    -0.88900
H908        H  0.14620138  0.62143092  0.86880112     0.18800
H909        H  0.06989652  0.73750376  0.90550171     0.18800
N910        N  0.07550783  0.73574684  0.84326305    -0.87900
H911        H  0.15744918  0.60121408  0.92004857     0.36100
H912        H  0.11967212  0.61014667  0.94353550     0.41200
H913        H  0.09814143  0.74960847  0.83145844     0.40900
H914        H  0.05985967  0.75808006  0.85454960     0.35800
C915        C  0.12117548  0.64748969  0.58951409    -0.26000
C916        C  0.09855269  0.68000449  0.57800898    -0.14100
C917        C  0.08027143  0.70553570  0.59940140     0.36600
C918        C  0.08854566  0.70085792  0.63128720    -0.25400
C919        C  0.11354055  0.67031147  0.64255317    -0.14700
C920        C  0.12736552  0.64145072  0.62182291     0.37700
N921        N  0.14714614  0.60608821  0.63369681    -0.88900
H922        H  0.13481201  0.62748516  0.57326294     0.18800
H923        H  0.07573925  0.72152638  0.64746228     0.18800
N924        N  0.05520060  0.73785615  0.58881909    -0.87900
H925        H  0.15536051  0.58786745  0.61537599     0.36100
H926        H  0.12728181  0.59005965  0.64705436     0.41200
H927        H  0.06660189  0.76435839  0.59680336     0.40900
H928        H  0.02805769  0.73419942  0.59915656     0.35800
O929        O  0.41140644  0.27286139  0.46602274    -0.72600
O930        O  0.38711400  0.19289729  0.03362202    -0.73600
O931        O  0.38850638  0.19495902  0.46637128    -0.62200
O932        O  0.41160867  0.27029262  0.03424746    -0.70600
O933        O  0.34985185  0.29097867  0.03405319    -0.70200
O934        O  0.32736735  0.21766445  0.46383939    -0.61400
O935        O  0.32535037  0.21362402  0.03175122    -0.73900
O936        O  0.35022372  0.29522110  0.46640015    -0.72700
Cu937      Cu  0.40176760  0.23208688  0.00009955     1.04600
Cu938      Cu  0.33608327  0.25502992  0.49899489     1.04300
C939        C  0.38346778  0.29367890  0.45352412     0.93600
C940        C  0.35314545  0.19409076  0.04541933     0.92700
C941        C  0.35566991  0.19780028  0.45227783     0.84900
C942        C  0.38356187  0.28906803  0.04700812     0.91100
O943        O  0.48223440  0.05126608  0.03336943    -0.72600
O944        O  0.46605287  0.47838842  0.46095080    -0.73600
O945        O  0.45842869  0.47382542  0.02866309    -0.62200
O946        O  0.48867910  0.05686455  0.46615705    -0.70600
O947        O  0.30026776  0.03630628  0.46960636    -0.70200
O948        O  0.27016870  0.45354291  0.03349341    -0.61400
O949        O  0.27761022  0.45801120  0.46646773    -0.73900
O950        O  0.29405387  0.03086646  0.03660420    -0.72700
Cu951      Cu  0.47170079  0.01580463  0.99707873     1.04600
Cu952      Cu  0.28756109  0.99398467  0.00161676     1.04300
C953        C  0.51485914  0.04911347  0.04805117     0.93600
C954        C  0.49569813  0.45905782  0.45094893     0.92700
C955        C  0.48521881  0.45405254  0.04338725     0.84900
C956        C  0.52337395  0.05717504  0.45587037     0.91100
C957        C  0.46004742  0.12362310  0.25113867     0.30300
C958        C  0.28974638  0.12362022  0.25023010     0.30300
C959        C  0.47984296  0.10333164  0.22288139    -0.05900
C960        C  0.47890311  0.16500283  0.25037482    -0.06600
C961        C  0.48147460  0.10270389  0.27971487    -0.06500
C962        C  0.27036481  0.10313307  0.22322621    -0.05900
C963        C  0.26930986  0.16467503  0.24991977    -0.06600
C964        C  0.27195276  0.10207407  0.27799136    -0.06500
C965        C  0.28338494  0.08844251  0.19571734    -0.31900
N966        N  0.50230656  0.08208682  0.17733357     0.14600
C967        C  0.46934652  0.08958456  0.19374841    -0.31900
H968        H  0.44020031  0.08720087  0.18450479     0.16500
C969        C  0.28114301  0.20355033  0.24964692    -0.30900
N970        N  0.49911650  0.22777061  0.25009403     0.13300
C971        C  0.46695666  0.20462136  0.25048333    -0.30900
C972        C  0.28730508  0.08979721  0.30612157    -0.31200
N973        N  0.50831416  0.08664828  0.32673681     0.13800
H974        H  0.31788439  0.08805235  0.31222158     0.16400
C975        C  0.47387671  0.09345009  0.31097236    -0.31200
H976        H  0.44570413  0.09387318  0.32188104     0.16400
H977        H  0.43716512  0.21552626  0.25100154     0.16400
H978        H  0.31328852  0.08583639  0.18829347     0.16500
H979        H  0.31086928  0.21333801  0.24934337     0.16500
C980        C  0.28888416  0.37379255  0.24757847     0.30300
C981        C  0.45916006  0.37431534  0.24869295     0.30300
C982        C  0.26762805  0.39391887  0.21889086    -0.05900
C983        C  0.26982974  0.33256818  0.24911184    -0.06600
C984        C  0.26938324  0.39491699  0.27527942    -0.06500
C985        C  0.47712995  0.39457793  0.22017441    -0.05900
C986        C  0.47938609  0.33309000  0.24969867    -0.06600
C987        C  0.47904077  0.39548658  0.27545746    -0.06500
C988        C  0.46267389  0.40856142  0.19194558    -0.31900
N989        N  0.49269477  0.41360267  0.17244327     0.14600
C990        C  0.27647855  0.40606108  0.18865313    -0.31900
H991        H  0.30506834  0.40775774  0.17878308     0.16500
C992        C  0.46746693  0.29422152  0.25049167    -0.30900
N993        N  0.49946556  0.26990636  0.25026389     0.13300
C994        C  0.28167544  0.29295868  0.24948114    -0.30100
C995        C  0.46723801  0.41099883  0.30320435    -0.31200
N996        N  0.49907001  0.41799619  0.32116382     0.13800
H997        H  0.43734410  0.41474873  0.31023975     0.16400
C998        C  0.28099351  0.40864441  0.30385449    -0.31200
H999        H  0.31071761  0.40835408  0.31195214     0.16400
H1000       H  0.31144443  0.28200183  0.24885876     0.16400
H1001       H  0.43238222  0.41175634  0.18503889     0.16500
H1002       H  0.43771871  0.28450082  0.25083215     0.16500
C1003       C  0.33442828  0.37361249  0.24783638     0.30300
C1004       C  0.41420174  0.37373273  0.24865933     0.30300
C1005       C  0.35485345  0.35332286  0.22016489    -0.05900
C1006       C  0.35343009  0.41514166  0.24767023    -0.06600
C1007       C  0.35488718  0.35245296  0.27642814    -0.06500
C1008       C  0.39532576  0.35320580  0.22108739    -0.05900
C1009       C  0.39389492  0.41473285  0.24804339    -0.06600
C1010       C  0.39540643  0.35268345  0.27640012    -0.06500
C1011       C  0.40862918  0.33732958  0.19391083    -0.31900
N1012       N  0.37772812  0.33001910  0.17545661     0.14600
C1013       C  0.34467686  0.33790006  0.19165158    -0.31900
H1014       H  0.31553805  0.33400959  0.18298592     0.16500
C1015       C  0.40596786  0.45346145  0.24894682    -0.30900
N1016       N  0.37408892  0.47784661  0.24928961     0.13300
C1017       C  0.34175357  0.45487311  0.24848143    -0.30900
C1018       C  0.40866404  0.33797732  0.30473065    -0.31200
N1019       N  0.37768312  0.32963844  0.32268847     0.13800
H1020       H  0.43860316  0.33668502  0.31276613     0.16400
C1021       C  0.34465780  0.33757300  0.30558914    -0.31200
H1022       H  0.31548148  0.33501412  0.31449769     0.16400
H1023       H  0.31200678  0.46593851  0.24884115     0.16400
H1024       H  0.43861703  0.33412890  0.18684615     0.16500
H1025       H  0.43575594  0.46303328  0.24967547     0.16500
C1026       C  0.33469101  0.12423264  0.25037443     0.30300
C1027       C  0.41446266  0.12401531  0.25085219     0.30300
C1028       C  0.35362855  0.14527994  0.27741840    -0.05900
C1029       C  0.35498826  0.08313367  0.25125986    -0.06600
C1030       C  0.35316116  0.14511950  0.22270806    -0.06500
C1031       C  0.39410866  0.14483109  0.27852418    -0.05900
C1032       C  0.39542737  0.08262726  0.25153404    -0.06600
C1033       C  0.39369102  0.14468398  0.22197086    -0.06500
C1034       C  0.40383769  0.16034858  0.30721073    -0.31900
N1035       N  0.37048450  0.16958000  0.32262228     0.14600
C1036       C  0.33994563  0.16199752  0.30398829    -0.31900
H1037       H  0.30982730  0.16495576  0.31079721     0.16500
C1038       C  0.40709362  0.04289778  0.25112408    -0.30900
N1039       N  0.37474812  0.01993567  0.25063438     0.13300
C1040       C  0.34288835  0.04436815  0.25078688    -0.30900
C1041       C  0.40276557  0.15760493  0.19192001    -0.31200
N1042       N  0.36904638  0.16539624  0.17563660     0.13800
H1043       H  0.43137127  0.15916422  0.18204032     0.16400
C1044       C  0.33891384  0.15970606  0.19480993    -0.31200
H1045       H  0.30865783  0.16222858  0.18768154     0.16400
H1046       H  0.31309649  0.03480125  0.25012836     0.16400
H1047       H  0.43276057  0.16320647  0.31675415     0.16500
H1048       H  0.43683851  0.03183292  0.25070907     0.16500
C1049       C  0.28010342  0.44758953  0.40192901    -0.26000
C1050       C  0.49587799  0.44309154  0.41901036    -0.14100
C1051       C  0.46247774  0.42952407  0.40375738     0.36600
C1052       C  0.46439753  0.42044059  0.37184302    -0.25400
C1053       C  0.49831572  0.42726838  0.35414397    -0.14700
C1054       C  0.28118008  0.44235888  0.36966308     0.37700
N1055       N  0.31505920  0.45413133  0.35273272    -0.88900
H1056       H  0.30589372  0.45771463  0.41351280     0.18800
H1057       H  0.43901659  0.40806837  0.36102587     0.18800
N1058       N  0.42688542  0.42494708  0.42058930    -0.87900
H1059       H  0.33643720  0.46483836  0.36769157     0.36100
H1060       H  0.30671263  0.47774173  0.33759674     0.41200
H1061       H  0.43152518  0.40225589  0.43744885     0.40900
H1062       H  0.40481594  0.41560326  0.40569419     0.35800
C1063       C  0.46739315  0.45560505  0.12934190    -0.26000
C1064       C  0.48765055  0.42110294  0.13949227    -0.14100
C1065       C  0.24858527  0.39262996  0.11729423     0.36600
C1066       C  0.24522682  0.40224990  0.08537962    -0.25400
C1067       C  0.47783618  0.43840541  0.07516658    -0.14700
C1068       C  0.46159701  0.46427295  0.09741041     0.37700
N1069       N  0.44214770  0.50085391  0.08759856    -0.88900
H1070       H  0.45687076  0.47623244  0.14651601     0.18800
H1071       H  0.25685230  0.38178747  0.06851597     0.18800
N1072       N  0.26172302  0.35340269  0.12646740    -0.87900
H1073       H  0.43440132  0.51760344  0.10689231     0.36100
H1074       H  0.41613379  0.49344389  0.07655178     0.41200
H1075       H  0.24042715  0.34052807  0.14045820     0.40900
H1076       H  0.28692788  0.35571524  0.13977603     0.35800
C1077       C  0.29768030  0.06161717  0.37164133    -0.26000
C1078       C  0.51572126  0.08447260  0.35997212    -0.14100
C1079       C  0.49565593  0.10927723  0.38067321     0.36600
C1080       C  0.50145634  0.10344046  0.41299389    -0.25400
C1081       C  0.52977080  0.07609190  0.42481253    -0.14700
C1082       C  0.30620637  0.05885192  0.40373034     0.37700
N1083       N  0.34155906  0.03907696  0.41458201    -0.88900
H1084       H  0.31606255  0.04564429  0.35566047     0.18800
H1085       H  0.48276727  0.11909446  0.42901317     0.18800
N1086       N  0.47068024  0.14101587  0.36886938    -0.87900
H1087       H  0.35905045  0.03145845  0.39573793     0.36100
H1088       H  0.33471969  0.01236577  0.42577347     0.41200
H1089       H  0.48790030  0.16040423  0.35581837     0.40900
H1090       H  0.45981973  0.15762117  0.38727676     0.35800
C1091       C  0.49816140  0.09660823  0.09001257    -0.26000
C1092       C  0.51695687  0.06153233  0.08074194    -0.14100
C1093       C  0.28327546  0.03506611  0.10374495     0.36600
C1094       C  0.27628863  0.04160117  0.13527817    -0.25400
C1095       C  0.50579564  0.07554901  0.14456634    -0.14700
C1096       C  0.49504748  0.10524043  0.12176989     0.37700
N1097       N  0.48488787  0.14531743  0.12983199    -0.88900
H1098       H  0.48729789  0.11802142  0.07251314     0.18800
H1099       H  0.28741378  0.02032898  0.15278885     0.18800
N1100       N  0.30618882  0.00096814  0.09522406    -0.87900
H1101       H  0.20627264  0.15153910  0.12270192     0.36100
H1102       H  0.23711800  0.14946084  0.15379950     0.41200
H1103       H  0.54379549  0.97551064  0.10495870     0.40900
H1104       H  0.58387205  0.00345097  0.10524772     0.35800
C1105       C  0.41105344  0.28835574  0.40080219    -0.26000
C1106       C  0.38715971  0.30970857  0.42121257    -0.14100
C1107       C  0.36091084  0.33893251  0.40863817     0.36600
C1108       C  0.35779668  0.34493173  0.37612039    -0.25400
C1109       C  0.38039199  0.32211853  0.35583320    -0.14700
C1110       C  0.40763903  0.29406654  0.36839475     0.37700
N1111       N  0.43066262  0.27001506  0.34818962    -0.88900
H1112       H  0.43061181  0.26497981  0.40981911     0.18800
H1113       H  0.33768624  0.36749610  0.36665671     0.18800
N1114       N  0.33704781  0.36219192  0.42878613    -0.87900
H1115       H  0.42492179  0.24013230  0.35319408     0.36100
H1116       H  0.45998274  0.27459132  0.35338816     0.41200
H1117       H  0.30793857  0.35795119  0.42266374     0.40900
H1118       H  0.34307148  0.39217726  0.42467370     0.35800
C1119       C  0.36788261  0.33800054  0.08791859    -0.26000
C1120       C  0.38823719  0.30356491  0.07912446    -0.14100
C1121       C  0.40782344  0.27973432  0.10242812     0.36600
C1122       C  0.40305113  0.28869478  0.13399689    -0.25400
C1123       C  0.38107705  0.32197312  0.14279015    -0.14700
C1124       C  0.36647837  0.34892430  0.11927737     0.37700
N1125       N  0.35189648  0.38807991  0.12618032    -0.88900
H1126       H  0.35388717  0.35712501  0.07019657     0.18800
H1127       H  0.41633069  0.26950996  0.15201530     0.18800
N1128       N  0.43162552  0.24595477  0.09423341    -0.87900
H1129       H  0.36775779  0.40851076  0.11295180     0.36100
H1130       H  0.35824498  0.39477428  0.14926867     0.41200
H1131       H  0.41339301  0.22453522  0.08537403     0.40900
H1132       H  0.44505554  0.23287352  0.11408975     0.35800
C1133       C  0.38058625  0.14732161  0.37710788    -0.26000
C1134       C  0.36604227  0.17593642  0.35536772    -0.14100
C1135       C  0.34252125  0.20766877  0.36560291     0.36600
C1136       C  0.33616072  0.21172167  0.39765009    -0.25400
C1137       C  0.35326419  0.18484704  0.41970904    -0.14700
C1138       C  0.37513778  0.15186964  0.40932335     0.37700
N1139       N  0.39232423  0.12374485  0.43152604    -0.88900
H1140       H  0.39620316  0.12143072  0.36880193     0.18800
H1141       H  0.31989601  0.23750208  0.40550249     0.18800
N1142       N  0.32550796  0.23574565  0.34326390    -0.87900
H1143       H  0.40745098  0.10121391  0.42004932     0.36100
H1144       H  0.36967358  0.11014560  0.44353613     0.41200
H1145       H  0.34814144  0.24960791  0.33145958     0.40900
H1146       H  0.30985918  0.25807839  0.35455044     0.35800
C1147       C  0.37117493  0.14748987  0.08951482    -0.26000
C1148       C  0.34855314  0.18000545  0.07800980    -0.14100
C1149       C  0.33027305  0.20553744  0.09940226     0.36600
C1150       C  0.33854729  0.20085938  0.13128802    -0.25400
C1151       C  0.36354105  0.17031196  0.14255390    -0.14700
C1152       C  0.37736495  0.14145068  0.12182362     0.37700
N1153       N  0.39714447  0.10608749  0.13369747    -0.88900
H1154       H  0.38481059  0.12748481  0.07326362     0.18800
H1155       H  0.32574176  0.22152838  0.14746313     0.18800
N1156       N  0.30520342  0.23785887  0.08881999    -0.87900
H1157       H  0.40535815  0.08786643  0.11537664     0.36100
H1158       H  0.37727964  0.09005965  0.14705506     0.41200
H1159       H  0.31660567  0.26436059  0.09680435     0.40900
H1160       H  0.27806035  0.23420320  0.09915747     0.35800
O1161       O  0.41140640  0.27286149  0.96602277    -0.72600
O1162       O  0.38711402  0.19289725  0.53362199    -0.73600
O1163       O  0.38850633  0.19495908  0.96637130    -0.62200
O1164       O  0.41160872  0.27029252  0.53424749    -0.70600
O1165       O  0.34985193  0.29097865  0.53405320    -0.70200
O1166       O  0.32736727  0.21766443  0.96383936    -0.61400
O1167       O  0.32535041  0.21362403  0.53175120    -0.73900
O1168       O  0.35022363  0.29522110  0.96640013    -0.72700
Cu1169     Cu  0.40176765  0.23208680  0.50009954     1.04600
Cu1170     Cu  0.33608318  0.25502993  0.99899489     1.04300
C1171       C  0.38346772  0.29367893  0.95352412     0.93600
C1172       C  0.35314549  0.19409078  0.54541933     0.92700
C1173       C  0.35566988  0.19780030  0.95227783     0.84900
C1174       C  0.38356194  0.28906798  0.54700814     0.91100
O1175       O  0.48223433  0.05126607  0.53336945    -0.72600
O1176       O  0.46605278  0.47838826  0.96095081    -0.73600
O1177       O  0.45842881  0.47382556  0.52866309    -0.62200
O1178       O  0.48867921  0.05686454  0.96615700    -0.70600
O1179       O  0.30026782  0.03630634  0.96960640    -0.70200
O1180       O  0.27016871  0.45354294  0.53349334    -0.61400
O1181       O  0.27761011  0.45801102  0.96646775    -0.73900
O1182       O  0.29405381  0.03086640  0.53660419    -0.72700
Cu1183     Cu  0.47170071  0.01580457  0.49707876     1.04600
Cu1184     Cu  0.28756106  0.99398463  0.50161674     1.04300
C1185       C  0.51485906  0.04911337  0.54805120     0.93600
C1186       C  0.49569806  0.45905771  0.95094892     0.92700
C1187       C  0.48521894  0.45405268  0.54338723     0.84900
C1188       C  0.52337408  0.05717511  0.95587034     0.91100
C1189       C  0.46004747  0.12362309  0.75113868     0.30300
C1190       C  0.28974641  0.12362024  0.75023011     0.30300
C1191       C  0.47984297  0.10333171  0.72288137    -0.05900
C1192       C  0.47890316  0.16500285  0.75037484    -0.06600
C1193       C  0.48147466  0.10270384  0.77971485    -0.06500
C1194       C  0.27036484  0.10313315  0.72322620    -0.05900
C1195       C  0.26930986  0.16467506  0.74991982    -0.06600
C1196       C  0.27195279  0.10207402  0.77799135    -0.06500
C1197       C  0.28338498  0.08844253  0.69571736    -0.31900
N1198       N  0.50230649  0.08208684  0.67733354     0.14600
C1199       C  0.46934648  0.08958459  0.69374841    -0.31900
H1200       H  0.44020024  0.08720085  0.68450486     0.16500
C1201       C  0.28114296  0.20355037  0.74964695    -0.30900
N1202       N  0.49911652  0.22777066  0.75009407     0.13300
C1203       C  0.46695669  0.20462138  0.75048335    -0.30900
C1204       C  0.28730510  0.08979706  0.80612155    -0.31200
N1205       N  0.50831420  0.08664813  0.82673678     0.13800
H1206       H  0.31788441  0.08805222  0.81222156     0.16400
C1207       C  0.47387676  0.09344996  0.81097233    -0.31200
H1208       H  0.44570417  0.09387304  0.82188101     0.16400
H1209       H  0.43716515  0.21552629  0.75100156     0.16400
H1210       H  0.31328857  0.08583644  0.68829348     0.16500
H1211       H  0.31086922  0.21333807  0.74934340     0.16500
C1212       C  0.28888415  0.37379263  0.74757847     0.30300
C1213       C  0.45916004  0.37431538  0.74869292     0.30300
C1214       C  0.26762802  0.39391895  0.71889087    -0.05900
C1215       C  0.26982971  0.33256827  0.74911186    -0.06600
C1216       C  0.26938322  0.39491712  0.77527939    -0.06500
C1217       C  0.47712990  0.39457793  0.72017437    -0.05900
C1218       C  0.47938611  0.33309007  0.74969867    -0.06600
C1219       C  0.47904074  0.39548664  0.77545741    -0.06500
C1220       C  0.46267384  0.40856134  0.69194551    -0.31900
N1221       N  0.49269473  0.41360271  0.67244324     0.14600
C1222       C  0.27647855  0.40606118  0.68865317    -0.31900
H1223       H  0.30506835  0.40775782  0.67878313     0.16500
C1224       C  0.46746695  0.29422160  0.75049169    -0.30900
N1225       N  0.49946557  0.26990642  0.75026392     0.13300
C1226       C  0.28167540  0.29295875  0.74948117    -0.30100
C1227       C  0.46723794  0.41099882  0.80320431    -0.31200
N1228       N  0.49906991  0.41799620  0.82116379     0.13800
H1229       H  0.43734401  0.41474862  0.81023972     0.16400
C1230       C  0.28099351  0.40864452  0.80385443    -0.31200
H1231       H  0.31071762  0.40835412  0.81195206     0.16400
H1232       H  0.31144439  0.28200189  0.74885878     0.16400
H1233       H  0.43238217  0.41175616  0.68503877     0.16500
H1234       H  0.43771875  0.28450090  0.75083217     0.16500
C1235       C  0.33442828  0.37361256  0.74783639     0.30300
C1236       C  0.41420173  0.37373278  0.74865933     0.30300
C1237       C  0.35485343  0.35332290  0.72016490    -0.05900
C1238       C  0.35343010  0.41514173  0.74767021    -0.06600
C1239       C  0.35488716  0.35245302  0.77642816    -0.06500
C1240       C  0.39532574  0.35320582  0.72108741    -0.05900
C1241       C  0.39389493  0.41473290  0.74804341    -0.06600
C1242       C  0.39540641  0.35268352  0.77640013    -0.06500
C1243       C  0.40862914  0.33732948  0.69391087    -0.31900
N1244       N  0.37772807  0.33001902  0.67545664     0.14600
C1245       C  0.34467682  0.33790001  0.69165163    -0.31900
H1246       H  0.31553800  0.33400955  0.68298600     0.16500
C1247       C  0.40596785  0.45346150  0.74894684    -0.30900
N1248       N  0.37408892  0.47784667  0.74928958     0.13300
C1249       C  0.34175357  0.45487318  0.74848134    -0.30900
C1250       C  0.40866400  0.33797737  0.80473065    -0.31200
N1251       N  0.37768308  0.32963841  0.82268846     0.13800
H1252       H  0.43860310  0.33668512  0.81276614     0.16400
C1253       C  0.34465776  0.33757294  0.80558912    -0.31200
H1254       H  0.31548146  0.33501402  0.81449769     0.16400
H1255       H  0.31200679  0.46593860  0.74884098     0.16400
H1256       H  0.43861698  0.33412876  0.68684618     0.16500
H1257       H  0.43575594  0.46303333  0.74967553     0.16500
C1258       C  0.33469104  0.12423267  0.75037442     0.30300
C1259       C  0.41446271  0.12401529  0.75085221     0.30300
C1260       C  0.35362857  0.14527992  0.77741842    -0.05900
C1261       C  0.35498829  0.08313369  0.75125983    -0.06600
C1262       C  0.35316123  0.14511955  0.72270806    -0.06500
C1263       C  0.39410869  0.14483104  0.77852421    -0.05900
C1264       C  0.39542739  0.08262727  0.75153406    -0.06600
C1265       C  0.39369110  0.14468397  0.72197088    -0.06500
C1266       C  0.40383771  0.16034848  0.80721076    -0.31900
N1267       N  0.37048452  0.16957993  0.82262231     0.14600
C1268       C  0.33994565  0.16199747  0.80398833    -0.31900
H1269       H  0.30982732  0.16495569  0.81079729     0.16500
C1270       C  0.40709364  0.04289779  0.75112411    -0.30900
N1271       N  0.37474814  0.01993568  0.75063437     0.13300
C1272       C  0.34288838  0.04436818  0.75078679    -0.30900
C1273       C  0.40276573  0.15760497  0.69192006    -0.31200
N1274       N  0.36904655  0.16539630  0.67563662     0.13800
H1275       H  0.43137148  0.15916428  0.68204044     0.16400
C1276       C  0.33891396  0.15970614  0.69480992    -0.31200
H1277       H  0.30865795  0.16222867  0.68768150     0.16400
H1278       H  0.31309651  0.03480132  0.75012819     0.16400
H1279       H  0.43276059  0.16320633  0.81675418     0.16500
H1280       H  0.43683853  0.03183295  0.75070913     0.16500
C1281       C  0.28010339  0.44758956  0.90192902    -0.26000
C1282       C  0.49587794  0.44309149  0.91901033    -0.14100
C1283       C  0.46247765  0.42952412  0.90375734     0.36600
C1284       C  0.46439742  0.42044065  0.87184298    -0.25400
C1285       C  0.49831562  0.42726840  0.85414393    -0.14700
C1286       C  0.28118008  0.44235885  0.86966310     0.37700
N1287       N  0.31505921  0.45413132  0.85273275    -0.88900
H1288       H  0.30589366  0.45771476  0.91351282     0.18800
H1289       H  0.43901645  0.40806850  0.86102582     0.18800
N1290       N  0.42688532  0.42494721  0.92058927    -0.87900
H1291       H  0.33643715  0.46483842  0.86769159     0.36100
H1292       H  0.30671257  0.47774173  0.83759679     0.41200
H1293       H  0.43152503  0.40225604  0.93744884     0.40900
H1294       H  0.40481584  0.41560342  0.90569415     0.35800
C1295       C  0.46739320  0.45560513  0.62934188    -0.26000
C1296       C  0.48765058  0.42110303  0.63949225    -0.14100
C1297       C  0.24858532  0.39263006  0.61729425     0.36600
C1298       C  0.24522688  0.40225001  0.58537963    -0.25400
C1299       C  0.47783635  0.43840557  0.57516657    -0.14700
C1300       C  0.46159711  0.46427307  0.59741040     0.37700
N1301       N  0.44214776  0.50085401  0.58759856    -0.88900
H1302       H  0.45687077  0.47623251  0.64651600     0.18800
H1303       H  0.25685235  0.38178757  0.56851599     0.18800
N1304       N  0.26172306  0.35340279  0.62646743    -0.87900
H1305       H  0.43440136  0.51760351  0.60689233     0.36100
H1306       H  0.41613386  0.49344396  0.57655179     0.41200
H1307       H  0.24042718  0.34052817  0.64045822     0.40900
H1308       H  0.28692792  0.35571534  0.63977607     0.35800
C1309       C  0.29768037  0.06161726  0.87164133    -0.26000
C1310       C  0.51572130  0.08447255  0.85997209    -0.14100
C1311       C  0.49565594  0.10927717  0.88067317     0.36600
C1312       C  0.50145638  0.10344048  0.91299385    -0.25400
C1313       C  0.52977090  0.07609198  0.92481250    -0.14700
C1314       C  0.30620645  0.05885202  0.90373033     0.37700
N1315       N  0.34155912  0.03907704  0.91458199    -0.88900
H1316       H  0.31606262  0.04564434  0.85566049     0.18800
H1317       H  0.48276731  0.11909447  0.92901313     0.18800
N1318       N  0.47068021  0.14101577  0.86886931    -0.87900
H1319       H  0.35905053  0.03145850  0.89573793     0.36100
H1320       H  0.33471971  0.01236587  0.92577346     0.41200
H1321       H  0.48790029  0.16040414  0.85581833     0.40900
H1322       H  0.45981968  0.15762107  0.88727667     0.35800
C1323       C  0.49816140  0.09660814  0.59001258    -0.26000
C1324       C  0.51695679  0.06153219  0.58074196    -0.14100
C1325       C  0.28327544  0.03506593  0.60374497     0.36600
C1326       C  0.27628866  0.04160099  0.63527820    -0.25400
C1327       C  0.50579555  0.07554892  0.64456634    -0.14700
C1328       C  0.49504752  0.10524036  0.62176989     0.37700
N1329       N  0.48488810  0.14531739  0.62983203    -0.88900
H1330       H  0.48729795  0.11802137  0.57251316     0.18800
H1331       H  0.28741386  0.02032881  0.65278887     0.18800
N1332       N  0.30618882  0.00096798  0.59522406    -0.87900
H1333       H  0.20627271  0.15153894  0.62270199     0.36100
H1334       H  0.23711816  0.14946068  0.65379954     0.41200
H1335       H  0.54379547  0.97551047  0.60495864     0.40900
H1336       H  0.58387195  0.00345092  0.60524784     0.35800
C1337       C  0.41105326  0.28835556  0.90080212    -0.26000
C1338       C  0.38715965  0.30970851  0.92121254    -0.14100
C1339       C  0.36091085  0.33893256  0.90863816     0.36600
C1340       C  0.35779665  0.34493178  0.87612038    -0.25400
C1341       C  0.38039194  0.32211856  0.85583319    -0.14700
C1342       C  0.40763890  0.29406649  0.86839469     0.37700
N1343       N  0.43066245  0.27001510  0.84818947    -0.88900
H1344       H  0.43061153  0.26497950  0.90981899     0.18800
H1345       H  0.33768617  0.36749614  0.86665671     0.18800
N1346       N  0.33704789  0.36219199  0.92878614    -0.87900
H1347       H  0.42492163  0.24013232  0.85319387     0.36100
H1348       H  0.45998258  0.27459141  0.85338794     0.41200
H1349       H  0.30793863  0.35795128  0.92266378     0.40900
H1350       H  0.34307157  0.39217732  0.92467369     0.35800
C1351       C  0.36788266  0.33800057  0.58791857    -0.26000
C1352       C  0.38823726  0.30356494  0.57912445    -0.14100
C1353       C  0.40782351  0.27973440  0.60242813     0.36600
C1354       C  0.40305119  0.28869484  0.63399690    -0.25400
C1355       C  0.38107705  0.32197312  0.64279016    -0.14700
C1356       C  0.36647840  0.34892431  0.61927736     0.37700
N1357       N  0.35189646  0.38807992  0.62618022    -0.88900
H1358       H  0.35388719  0.35712505  0.57019657     0.18800
H1359       H  0.41633074  0.26951001  0.65201531     0.18800
N1360       N  0.43162559  0.24595485  0.59423343    -0.87900
H1361       H  0.36775772  0.40851075  0.61295170     0.36100
H1362       H  0.35824488  0.39477428  0.64926862     0.41200
H1363       H  0.41339308  0.22453527  0.58537412     0.40900
H1364       H  0.44505566  0.23287368  0.61408978     0.35800
C1365       C  0.38058625  0.14732155  0.87710791    -0.26000
C1366       C  0.36604230  0.17593637  0.85536775    -0.14100
C1367       C  0.34252132  0.20766876  0.86560292     0.36600
C1368       C  0.33616078  0.21172169  0.89765009    -0.25400
C1369       C  0.35326424  0.18484706  0.91970905    -0.14700
C1370       C  0.37513782  0.15186963  0.90932337     0.37700
N1371       N  0.39232426  0.12374482  0.93152606    -0.88900
H1372       H  0.39620311  0.12143063  0.86880196     0.18800
H1373       H  0.31989603  0.23750209  0.90550247     0.18800
N1374       N  0.32550798  0.23574557  0.84326389    -0.87900
H1375       H  0.40745096  0.10121386  0.92004934     0.36100
H1376       H  0.36967357  0.11014558  0.94353612     0.41200
H1377       H  0.34814144  0.24960779  0.83145949     0.40900
H1378       H  0.30985921  0.25807833  0.85455041     0.35800
C1379       C  0.37117499  0.14748989  0.58951483    -0.26000
C1380       C  0.34855323  0.18000552  0.57800981    -0.14100
C1381       C  0.33027314  0.20553749  0.59940228     0.36600
C1382       C  0.33854745  0.20085942  0.63128803    -0.25400
C1383       C  0.36354122  0.17031200  0.64255391    -0.14700
C1384       C  0.37736501  0.14145068  0.62182363     0.37700
N1385       N  0.39714453  0.10608748  0.63369748    -0.88900
H1386       H  0.38481066  0.12748484  0.57326363     0.18800
H1387       H  0.32574198  0.22152843  0.64746316     0.18800
N1388       N  0.30520349  0.23785893  0.58882004    -0.87900
H1389       H  0.40535816  0.08786639  0.61537664     0.36100
H1390       H  0.37727976  0.09005964  0.64705514     0.41200
H1391       H  0.31660573  0.26436066  0.59680439     0.40900
H1392       H  0.27806042  0.23420328  0.59915751     0.35800
O1393       O  0.41140584  0.77286324  0.46602342    -0.72600
O1394       O  0.38711391  0.69289748  0.03362153    -0.73600
O1395       O  0.38850653  0.69496061  0.46637053    -0.62200
O1396       O  0.41160768  0.77029298  0.03424813    -0.70600
O1397       O  0.34985051  0.79097780  0.03405399    -0.70200
O1398       O  0.32736725  0.71766529  0.46383872    -0.61400
O1399       O  0.32534997  0.71362308  0.03175041    -0.73900
O1400       O  0.35022281  0.79522201  0.46640082    -0.72700
Cu1401     Cu  0.40176726  0.73208784  0.00009955     1.04600
Cu1402     Cu  0.33608256  0.75502991  0.49899487     1.04300
C1403       C  0.38346690  0.79368036  0.45352482     0.93600
C1404       C  0.35314521  0.69409021  0.04541861     0.92700
C1405       C  0.35567003  0.69780162  0.45227704     0.84900
C1406       C  0.38356048  0.78906748  0.04700903     0.91100
O1407       O  0.48223336  0.55126459  0.03336907    -0.72600
O1408       O  0.46605155  0.97838956  0.46095150    -0.73600
O1409       O  0.45842851  0.97382725  0.02866400    -0.62200
O1410       O  0.48867903  0.55686364  0.46615676    -0.70600
O1411       O  0.30026787  0.53630614  0.46960621    -0.70200
O1412       O  0.27016843  0.95354381  0.03349396    -0.61400
O1413       O  0.27760885  0.95801163  0.46646818    -0.73900
O1414       O  0.29405310  0.53086584  0.03660395    -0.72700
Cu1415     Cu  0.47170083  0.51580313  0.99707818     1.04600
Cu1416     Cu  0.28756126  0.49398406  0.00161641     1.04300
C1417       C  0.51485802  0.54911228  0.04805093     0.93600
C1418       C  0.49569651  0.95905855  0.45094953     0.92700
C1419       C  0.48521852  0.95405393  0.04338797     0.84900
C1420       C  0.52337389  0.55717461  0.45587013     0.91100
C1421       C  0.46004679  0.62362294  0.25113817     0.30300
C1422       C  0.28974575  0.62362003  0.25022943     0.30300
C1423       C  0.47984223  0.60333126  0.22288094    -0.05900
C1424       C  0.47890248  0.66500265  0.25037407    -0.06600
C1425       C  0.48147406  0.60270395  0.27971447    -0.06500
C1426       C  0.27036409  0.60313265  0.22322571    -0.05900
C1427       C  0.26930922  0.66467486  0.24991890    -0.06600
C1428       C  0.27195223  0.60207410  0.27799088    -0.06500
C1429       C  0.28338410  0.58844177  0.19571692    -0.31900
N1430       N  0.50230555  0.58208560  0.17733329     0.14600
C1431       C  0.46934562  0.58958356  0.19374820    -0.31900
H1432       H  0.44019934  0.58719968  0.18450477     0.16500
C1433       C  0.28114231  0.70355020  0.24964600    -0.30900
N1434       N  0.49911581  0.72777042  0.25009332     0.13300
C1435       C  0.46695600  0.70462114  0.25048266    -0.30900
C1436       C  0.28730468  0.58979766  0.30612118    -0.31200
N1437       N  0.50831385  0.58664902  0.32673654     0.13800
H1438       H  0.31788403  0.58805281  0.31222108     0.16400
C1439       C  0.47387635  0.59345066  0.31097211    -0.31200
H1440       H  0.44570380  0.59387382  0.32188085     0.16400
H1441       H  0.43716447  0.71552601  0.25100108     0.16400
H1442       H  0.31328764  0.58583576  0.18829290     0.16500
H1443       H  0.31086856  0.71333796  0.24934246     0.16500
C1444       C  0.28888287  0.87379259  0.24757913     0.30300
C1445       C  0.45915880  0.87431480  0.24869356     0.30300
C1446       C  0.26762671  0.89391873  0.21889150    -0.05900
C1447       C  0.26982864  0.83256805  0.24911241    -0.06600
C1448       C  0.26938177  0.89491690  0.27528006    -0.06500
C1449       C  0.47712863  0.89457742  0.22017498    -0.05900
C1450       C  0.47938506  0.83308963  0.24969923    -0.06600
C1451       C  0.47903933  0.89548605  0.27545812    -0.06500
C1452       C  0.46267256  0.90856022  0.19194595    -0.31900
N1453       N  0.49269348  0.91360164  0.17244372     0.14600
C1454       C  0.27647724  0.90606058  0.18865370    -0.31900
H1455       H  0.30506706  0.90775743  0.17878372     0.16500
C1456       C  0.46746607  0.79422114  0.25049173    -0.30900
N1457       N  0.49946477  0.76990614  0.25026365     0.13300
C1458       C  0.28167448  0.79295858  0.24948117    -0.30100
C1459       C  0.46723638  0.91099806  0.30320505    -0.31200
N1460       N  0.49906826  0.91799586  0.32116452     0.13800
H1461       H  0.43734242  0.91474753  0.31024046     0.16400
C1462       C  0.28099189  0.90864448  0.30385511    -0.31200
H1463       H  0.31071601  0.90835437  0.31195270     0.16400
H1464       H  0.31144352  0.78200184  0.24885853     0.16400
H1465       H  0.43238091  0.91175480  0.18503914     0.16500
H1466       H  0.43771789  0.78450033  0.25083196     0.16500
C1467       C  0.33442701  0.87361271  0.24783710     0.30300
C1468       C  0.41420049  0.87373230  0.24865999     0.30300
C1469       C  0.35485200  0.85332296  0.22016561    -0.05900
C1470       C  0.35342917  0.91514179  0.24767111    -0.06600
C1471       C  0.35488575  0.85245292  0.27642876    -0.06500
C1472       C  0.39532431  0.85320556  0.22108807    -0.05900
C1473       C  0.39389402  0.91473261  0.24804425    -0.06600
C1474       C  0.39540501  0.85268304  0.27640072    -0.06500
C1475       C  0.40862754  0.83732836  0.19391182    -0.31900
N1476       N  0.37772635  0.83001758  0.17545780     0.14600
C1477       C  0.34467519  0.83789935  0.19165265    -0.31900
H1478       H  0.31553632  0.83400906  0.18298700     0.16500
C1479       C  0.40596740  0.95346108  0.24894796    -0.30900
N1480       N  0.37408872  0.97784656  0.24929094     0.13300
C1481       C  0.34175311  0.95487337  0.24848263    -0.30900
C1482       C  0.40866247  0.83797665  0.30473117    -0.31200
N1483       N  0.37768145  0.82963810  0.32268900     0.13800
H1484       H  0.43860158  0.83668417  0.31276664     0.16400
C1485       C  0.34465620  0.83757295  0.30558968    -0.31200
H1486       H  0.31547985  0.83501433  0.31449823     0.16400
H1487       H  0.31200642  0.96593904  0.24884240     0.16400
H1488       H  0.43861536  0.83412725  0.18684715     0.16500
H1489       H  0.43575559  0.96303262  0.24967659     0.16500
C1490       C  0.33469036  0.62423251  0.25037371     0.30300
C1491       C  0.41446202  0.62401530  0.25085162     0.30300
C1492       C  0.35362778  0.64527998  0.27741767    -0.05900
C1493       C  0.35498767  0.58313354  0.25125916    -0.06600
C1494       C  0.35316056  0.64511936  0.22270736    -0.06500
C1495       C  0.39410788  0.64483108  0.27852356    -0.05900
C1496       C  0.39542679  0.58262729  0.25153337    -0.06600
C1497       C  0.39369044  0.64468393  0.22197025    -0.06500
C1498       C  0.40383677  0.66034886  0.30721002    -0.31900
N1499       N  0.37048353  0.66958060  0.32262141     0.14600
C1500       C  0.33994474  0.66199805  0.30398737    -0.31900
H1501       H  0.30982639  0.66495648  0.31079619     0.16500
C1502       C  0.40709327  0.54289795  0.25112299    -0.30900
N1503       N  0.37474791  0.51993570  0.25063315     0.13300
C1504       C  0.34288795  0.54436794  0.25078584    -0.30900
C1505       C  0.40276510  0.65760478  0.19191940    -0.31200
N1506       N  0.36904593  0.66539598  0.17563589     0.13800
H1507       H  0.43137086  0.65916390  0.18203974     0.16400
C1508       C  0.33891332  0.65970572  0.19480916    -0.31200
H1509       H  0.30865732  0.66222797  0.18768068     0.16400
H1510       H  0.31309614  0.53480084  0.25012721     0.16400
H1511       H  0.43275962  0.66320668  0.31675355     0.16500
H1512       H  0.43683822  0.53183326  0.25070776     0.16500
C1513       C  0.28010156  0.94758998  0.40192954    -0.26000
C1514       C  0.49587610  0.94309208  0.41901098    -0.14100
C1515       C  0.46247578  0.92952461  0.40375805     0.36600
C1516       C  0.46439558  0.92044090  0.37184370    -0.25400
C1517       C  0.49831388  0.92726831  0.35414464    -0.14700
C1518       C  0.28117820  0.94235904  0.36966366     0.37700
N1519       N  0.31505727  0.95413146  0.35273323    -0.88900
H1520       H  0.30589188  0.95771525  0.41351321     0.18800
H1521       H  0.43901453  0.90806890  0.36102656     0.18800
N1522       N  0.42688340  0.92494790  0.42058996    -0.87900
H1523       H  0.33643527  0.96483869  0.36769197     0.36100
H1524       H  0.30671058  0.97774170  0.33759713     0.41200
H1525       H  0.43152305  0.90225691  0.43744970     0.40900
H1526       H  0.40481394  0.91560391  0.40569492     0.35800
C1527       C  0.46739286  0.95560516  0.12934273    -0.26000
C1528       C  0.48764944  0.92110246  0.13949279    -0.14100
C1529       C  0.24858373  0.89262968  0.11729448     0.36600
C1530       C  0.24522575  0.90225036  0.08537994    -0.25400
C1531       C  0.47783592  0.93840646  0.07516725    -0.14700
C1532       C  0.46159717  0.96427386  0.09741133     0.37700
N1533       N  0.44214863  0.00085538  0.08759989    -0.88900
H1534       H  0.45687073  0.97623239  0.14651705     0.18800
H1535       H  0.25685082  0.88178798  0.06851609     0.18800
N1536       N  0.26172052  0.85340196  0.12646735    -0.87900
H1537       H  0.43440250  0.01760466  0.10689383     0.36100
H1538       H  0.41613459  0.99344611  0.07655294     0.41200
H1539       H  0.24042405  0.84052751  0.14045762     0.40900
H1540       H  0.28692507  0.85571368  0.13977655     0.35800
C1541       C  0.29768015  0.56161773  0.37164099    -0.26000
C1542       C  0.51572101  0.58447311  0.35997187    -0.14100
C1543       C  0.49565531  0.60927717  0.38067319     0.36600
C1544       C  0.50145575  0.60344008  0.41299384    -0.25400
C1545       C  0.52977049  0.57609169  0.42481231    -0.14700
C1546       C  0.30620617  0.55885205  0.40373001     0.37700
N1547       N  0.34155894  0.53907714  0.41458155    -0.88900
H1548       H  0.31606245  0.54564506  0.35566005     0.18800
H1549       H  0.48276655  0.61909374  0.42901324     0.18800
N1550       N  0.47067933  0.64101570  0.36886957    -0.87900
H1551       H  0.35905021  0.53145854  0.39573744     0.36100
H1552       H  0.33471962  0.51236601  0.42577314     0.41200
H1553       H  0.48789929  0.66040448  0.35581892     0.40900
H1554       H  0.45981848  0.65762054  0.38727711     0.35800
C1555       C  0.49816036  0.59660695  0.09001236    -0.26000
C1556       C  0.51695545  0.56153088  0.08074174    -0.14100
C1557       C  0.28327407  0.53506466  0.10374472     0.36600
C1558       C  0.27628711  0.54159956  0.13527796    -0.25400
C1559       C  0.50579435  0.57554754  0.14456610    -0.14700
C1560       C  0.49504682  0.60523923  0.12176968     0.37700
N1561       N  0.48488867  0.64531659  0.12983182    -0.88900
H1562       H  0.48729723  0.61802034  0.07251294     0.18800
H1563       H  0.28741211  0.52032729  0.15278865     0.18800
N1564       N  0.30618776  0.50096694  0.09522377    -0.87900
H1565       H  0.20627360  0.65153943  0.12270160     0.36100
H1566       H  0.23711850  0.64945974  0.15379946     0.41200
H1567       H  0.54379480  0.47550918  0.10495841     0.40900
H1568       H  0.58387088  0.50345013  0.10524750     0.35800
C1569       C  0.41105276  0.78835737  0.40080297    -0.26000
C1570       C  0.38715851  0.80970983  0.42121320    -0.14100
C1571       C  0.36090867  0.83893271  0.40863858     0.36600
C1572       C  0.35779427  0.84493138  0.37612078    -0.25400
C1573       C  0.38039029  0.82211861  0.35583377    -0.14700
C1574       C  0.40763801  0.79406749  0.36839551     0.37700
N1575       N  0.43066188  0.77001606  0.34819055    -0.88900
H1576       H  0.43061178  0.76498208  0.40982002     0.18800
H1577       H  0.33768310  0.86749500  0.36665697     0.18800
N1578       N  0.33704498  0.86219161  0.42878637    -0.87900
H1579       H  0.42492161  0.74013325  0.35319540     0.36100
H1580       H  0.45998193  0.77459298  0.35338887     0.41200
H1581       H  0.30793587  0.85794989  0.42266406     0.40900
H1582       H  0.34306784  0.89217710  0.42467373     0.35800
C1583       C  0.36788045  0.83799922  0.08791985    -0.26000
C1584       C  0.38823535  0.80356385  0.07912557    -0.14100
C1585       C  0.40782167  0.77973319  0.10242915     0.36600
C1586       C  0.40304925  0.78869334  0.13399797    -0.25400
C1587       C  0.38107510  0.82197158  0.14279134    -0.14700
C1588       C  0.36647624  0.84892279  0.11927866     0.37700
N1589       N  0.35189426  0.88807834  0.12618173    -0.88900
H1590       H  0.35388492  0.85712377  0.07019794     0.18800
H1591       H  0.41632892  0.76950848  0.15201630     0.18800
N1592       N  0.43162417  0.74595402  0.09423429    -0.87900
H1593       H  0.36775491  0.90850927  0.11295276     0.36100
H1594       H  0.35824373  0.89477294  0.14926987     0.41200
H1595       H  0.41339199  0.72453448  0.08537446     0.40900
H1596       H  0.44505400  0.73287254  0.11409062     0.35800
C1597       C  0.38058491  0.64732204  0.37710706    -0.26000
C1598       C  0.36604123  0.67593700  0.35536686    -0.14100
C1599       C  0.34252086  0.70766984  0.36560207     0.36600
C1600       C  0.33616081  0.71172312  0.39764928    -0.25400
C1601       C  0.35326420  0.68484841  0.41970823    -0.14700
C1602       C  0.37513695  0.65187045  0.40932256     0.37700
N1603       N  0.39232293  0.62374541  0.43152529    -0.88900
H1604       H  0.39620134  0.62143084  0.36880112     0.18800
H1605       H  0.31989658  0.73750384  0.40550169     0.18800
N1606       N  0.32550800  0.73574694  0.34326303    -0.87900
H1607       H  0.40744913  0.60121405  0.42004862     0.36100
H1608       H  0.36967202  0.61014679  0.44353549     0.41200
H1609       H  0.34814170  0.74960853  0.33145853     0.40900
H1610       H  0.30985989  0.75808018  0.35454961     0.35800
C1611       C  0.37117558  0.64748971  0.08951409    -0.26000
C1612       C  0.34855276  0.68000451  0.07800897    -0.14100
C1613       C  0.33027153  0.70553575  0.09940137     0.36600
C1614       C  0.33854582  0.70085797  0.13128715    -0.25400
C1615       C  0.36354064  0.67031148  0.14255315    -0.14700
C1616       C  0.37736563  0.64145071  0.12182291     0.37700
N1617       N  0.39714628  0.60608819  0.13369679    -0.88900
H1618       H  0.38481215  0.62748522  0.07326294     0.18800
H1619       H  0.32573948  0.72152650  0.14746222     0.18800
N1620       N  0.30520076  0.73785628  0.08881908    -0.87900
H1621       H  0.40536044  0.58786732  0.11537599     0.36100
H1622       H  0.37728204  0.59005969  0.14705449     0.41200
H1623       H  0.31660207  0.76435849  0.09680339     0.40900
H1624       H  0.27805781  0.73419965  0.09915650     0.35800
O1625       O  0.41140586  0.77286319  0.96602340    -0.72600
O1626       O  0.38711381  0.69289740  0.53362146    -0.73600
O1627       O  0.38850656  0.69496055  0.96637053    -0.62200
O1628       O  0.41160768  0.77029286  0.53424819    -0.70600
O1629       O  0.34985056  0.79097787  0.53405390    -0.70200
O1630       O  0.32736731  0.71766532  0.96383873    -0.61400
O1631       O  0.32534986  0.71362302  0.53175039    -0.73900
O1632       O  0.35022285  0.79522200  0.96640085    -0.72700
Cu1633     Cu  0.40176723  0.73208782  0.50009955     1.04600
Cu1634     Cu  0.33608260  0.75502992  0.99899490     1.04300
C1635       C  0.38346693  0.79368032  0.95352483     0.93600
C1636       C  0.35314513  0.69409012  0.54541857     0.92700
C1637       C  0.35567006  0.69780160  0.95227705     0.84900
C1638       C  0.38356048  0.78906747  0.54700901     0.91100
O1639       O  0.48223355  0.55126472  0.53336907    -0.72600
O1640       O  0.46605161  0.97838962  0.96095148    -0.73600
O1641       O  0.45842844  0.97382713  0.52866398    -0.62200
O1642       O  0.48867897  0.55686345  0.96615676    -0.70600
O1643       O  0.30026769  0.53630598  0.96960616    -0.70200
O1644       O  0.27016838  0.95354376  0.53349397    -0.61400
O1645       O  0.27760885  0.95801167  0.96646818    -0.73900
O1646       O  0.29405316  0.53086580  0.53660399    -0.72700
Cu1647     Cu  0.47170091  0.51580330  0.49707817     1.04600
Cu1648     Cu  0.28756134  0.49398415  0.50161641     1.04300
C1649       C  0.51485822  0.54911241  0.54805092     0.93600
C1650       C  0.49569657  0.95905866  0.95094949     0.92700
C1651       C  0.48521842  0.95405381  0.54338797     0.84900
C1652       C  0.52337383  0.55717445  0.95587014     0.91100
C1653       C  0.46004677  0.62362295  0.75113815     0.30300
C1654       C  0.28974571  0.62362006  0.75022942     0.30300
C1655       C  0.47984224  0.60333119  0.72288099    -0.05900
C1656       C  0.47890243  0.66500266  0.75037403    -0.06600
C1657       C  0.48147402  0.60270403  0.77971447    -0.06500
C1658       C  0.27036408  0.60313269  0.72322566    -0.05900
C1659       C  0.26930916  0.66467487  0.74991889    -0.06600
C1660       C  0.27195215  0.60207416  0.77799089    -0.06500
C1661       C  0.28338409  0.58844185  0.69571682    -0.31900
N1662       N  0.50230556  0.58208569  0.67733329     0.14600
C1663       C  0.46934564  0.58958361  0.69374821    -0.31900
H1664       H  0.44019938  0.58719977  0.68450476     0.16500
C1665       C  0.28114226  0.70355018  0.74964603    -0.30900
N1666       N  0.49911576  0.72777043  0.75009335     0.13300
C1667       C  0.46695594  0.70462115  0.75048267    -0.30900
C1668       C  0.28730455  0.58979773  0.80612122    -0.31200
N1669       N  0.50831370  0.58664893  0.82673655     0.13800
H1670       H  0.31788388  0.58805283  0.81222115     0.16400
C1671       C  0.47387625  0.59345064  0.81097207    -0.31200
H1672       H  0.44570369  0.59387381  0.82188077     0.16400
H1673       H  0.43716440  0.71552600  0.75100111     0.16400
H1674       H  0.31328761  0.58583582  0.68829275     0.16500
H1675       H  0.31086852  0.71333788  0.74934250     0.16500
C1676       C  0.28888292  0.87379258  0.74757913     0.30300
C1677       C  0.45915883  0.87431482  0.74869357     0.30300
C1678       C  0.26762673  0.89391876  0.71889153    -0.05900
C1679       C  0.26982869  0.83256805  0.74911242    -0.06600
C1680       C  0.26938181  0.89491688  0.77528005    -0.06500
C1681       C  0.47712864  0.89457749  0.72017502    -0.05900
C1682       C  0.47938509  0.83308965  0.74969923    -0.06600
C1683       C  0.47903937  0.89548603  0.77545812    -0.06500
C1684       C  0.46267255  0.90856023  0.69194598    -0.31900
N1685       N  0.49269345  0.91360150  0.67244370     0.14600
C1686       C  0.27647723  0.90606045  0.68865369    -0.31900
H1687       H  0.30506704  0.90775717  0.67878370     0.16500
C1688       C  0.46746607  0.79422119  0.75049175    -0.30900
N1689       N  0.49946477  0.76990616  0.75026368     0.13300
C1690       C  0.28167452  0.79295858  0.74948119    -0.30100
C1691       C  0.46723637  0.91099805  0.80320502    -0.31200
N1692       N  0.49906823  0.91799584  0.82116449     0.13800
H1693       H  0.43734240  0.91474760  0.81024039     0.16400
C1694       C  0.28099192  0.90864450  0.80385508    -0.31200
H1695       H  0.31071604  0.90835441  0.81195266     0.16400
H1696       H  0.31144356  0.78200186  0.74885855     0.16400
H1697       H  0.43238089  0.91175485  0.68503920     0.16500
H1698       H  0.43771787  0.78450043  0.75083198     0.16500
C1699       C  0.33442705  0.87361269  0.74783711     0.30300
C1700       C  0.41420052  0.87373229  0.74866001     0.30300
C1701       C  0.35485203  0.85332290  0.72016564    -0.05900
C1702       C  0.35342921  0.91514178  0.74767113    -0.06600
C1703       C  0.35488578  0.85245290  0.77642878    -0.06500
C1704       C  0.39532434  0.85320555  0.72108809    -0.05900
C1705       C  0.39389405  0.91473260  0.74804427    -0.06600
C1706       C  0.39540505  0.85268302  0.77640074    -0.06500
C1707       C  0.40862757  0.83732843  0.69391181    -0.31900
N1708       N  0.37772638  0.83001759  0.67545781     0.14600
C1709       C  0.34467522  0.83789923  0.69165269    -0.31900
H1710       H  0.31553635  0.83400883  0.68298706     0.16500
C1711       C  0.40596742  0.95346107  0.74894798    -0.30900
N1712       N  0.37408875  0.97784656  0.74929096     0.13300
C1713       C  0.34175314  0.95487336  0.74848268    -0.30900
C1714       C  0.40866250  0.83797671  0.80473122    -0.31200
N1715       N  0.37768148  0.82963816  0.82268904     0.13800
H1716       H  0.43860162  0.83668425  0.81276669     0.16400
C1717       C  0.34465623  0.83757299  0.80558972    -0.31200
H1718       H  0.31547989  0.83501440  0.81449828     0.16400
H1719       H  0.31200647  0.96593906  0.74884251     0.16400
H1720       H  0.43861540  0.83412737  0.68684714     0.16500
H1721       H  0.43575561  0.96303262  0.74967661     0.16500
C1722       C  0.33469034  0.62423255  0.75037373     0.30300
C1723       C  0.41446201  0.62401532  0.75085160     0.30300
C1724       C  0.35362778  0.64527993  0.77741771    -0.05900
C1725       C  0.35498767  0.58313360  0.75125915    -0.06600
C1726       C  0.35316053  0.64511945  0.72270739    -0.06500
C1727       C  0.39410789  0.64483108  0.77852356    -0.05900
C1728       C  0.39542678  0.58262733  0.75153336    -0.06600
C1729       C  0.39369042  0.64468396  0.72197023    -0.06500
C1730       C  0.40383678  0.66034887  0.80721002    -0.31900
N1731       N  0.37048354  0.66958053  0.82262145     0.14600
C1732       C  0.33994474  0.66199793  0.80398743    -0.31900
H1733       H  0.30982638  0.66495638  0.81079625     0.16500
C1734       C  0.40709325  0.54289799  0.75112301    -0.30900
N1735       N  0.37474790  0.51993575  0.75063317     0.13300
C1736       C  0.34288797  0.54436801  0.75078587    -0.30900
C1737       C  0.40276505  0.65760467  0.69191934    -0.31200
N1738       N  0.36904585  0.66539589  0.67563587     0.13800
H1739       H  0.43137080  0.65916371  0.68203966     0.16400
C1740       C  0.33891326  0.65970576  0.69480919    -0.31200
H1741       H  0.30865724  0.66222805  0.68768075     0.16400
H1742       H  0.31309616  0.53480093  0.75012724     0.16400
H1743       H  0.43275963  0.66320679  0.81675351     0.16500
H1744       H  0.43683819  0.53183330  0.75070777     0.16500
C1745       C  0.28010151  0.94759005  0.90192948    -0.26000
C1746       C  0.49587610  0.94309221  0.91901092    -0.14100
C1747       C  0.46247577  0.92952470  0.90375801     0.36600
C1748       C  0.46439551  0.92044095  0.87184366    -0.25400
C1749       C  0.49831380  0.92726839  0.85414458    -0.14700
C1750       C  0.28117821  0.94235901  0.86966362     0.37700
N1751       N  0.31505729  0.95413150  0.85273321    -0.88900
H1752       H  0.30589179  0.95771538  0.91351316     0.18800
H1753       H  0.43901448  0.90806884  0.86102655     0.18800
N1754       N  0.42688344  0.92494797  0.92058999    -0.87900
H1755       H  0.33643524  0.96483874  0.86769198     0.36100
H1756       H  0.30671057  0.97774178  0.83759716     0.41200
H1757       H  0.43152318  0.90225706  0.93744978     0.40900
H1758       H  0.40481397  0.91560388  0.90569499     0.35800
C1759       C  0.46739289  0.95560508  0.62934274    -0.26000
C1760       C  0.48764941  0.92110234  0.63949278    -0.14100
C1761       C  0.24858370  0.89262953  0.61729450     0.36600
C1762       C  0.24522573  0.90225024  0.58537996    -0.25400
C1763       C  0.47783577  0.93840635  0.57516724    -0.14700
C1764       C  0.46159710  0.96427378  0.59741134     0.37700
N1765       N  0.44214854  0.00085532  0.58759993    -0.88900
H1766       H  0.45687085  0.97623230  0.64651710     0.18800
H1767       H  0.25685091  0.88178793  0.56851612     0.18800
N1768       N  0.26172056  0.85340181  0.62646736    -0.87900
H1769       H  0.43440245  0.01760460  0.60689387     0.36100
H1770       H  0.41613446  0.99344601  0.57655302     0.41200
H1771       H  0.24042411  0.84052730  0.64045762     0.40900
H1772       H  0.28692510  0.85571354  0.63977657     0.35800
C1773       C  0.29768002  0.56161775  0.87164101    -0.26000
C1774       C  0.51572087  0.58447309  0.85997188    -0.14100
C1775       C  0.49565526  0.60927720  0.88067320     0.36600
C1776       C  0.50145572  0.60344002  0.91299386    -0.25400
C1777       C  0.52977041  0.57609156  0.92481233    -0.14700
C1778       C  0.30620602  0.55885202  0.90373003     0.37700
N1779       N  0.34155885  0.53907721  0.91458156    -0.88900
H1780       H  0.31606241  0.54564520  0.85566006     0.18800
H1781       H  0.48276653  0.61909363  0.92901327     0.18800
N1782       N  0.47067922  0.64101573  0.86886963    -0.87900
H1783       H  0.35905010  0.53145862  0.89573744     0.36100
H1784       H  0.33471969  0.51236608  0.92577323     0.41200
H1785       H  0.48789909  0.66040454  0.85581890     0.40900
H1786       H  0.45981841  0.65762057  0.88727717     0.35800
C1787       C  0.49816047  0.59660707  0.59001237    -0.26000
C1788       C  0.51695562  0.56153102  0.58074174    -0.14100
C1789       C  0.28327412  0.53506471  0.60374469     0.36600
C1790       C  0.27628708  0.54159959  0.63527791    -0.25400
C1791       C  0.50579435  0.57554767  0.64456609    -0.14700
C1792       C  0.49504681  0.60523934  0.62176968     0.37700
N1793       N  0.48488852  0.64531666  0.62983181    -0.88900
H1794       H  0.48729735  0.61802045  0.57251294     0.18800
H1795       H  0.28741207  0.52032728  0.65278859     0.18800
N1796       N  0.30618783  0.50096700  0.59522375    -0.87900
H1797       H  0.20627343  0.65153933  0.62270147     0.36100
H1798       H  0.23711830  0.64945982  0.65379935     0.41200
H1799       H  0.54379490  0.47550930  0.60495848     0.40900
H1800       H  0.58387095  0.50345024  0.60524752     0.35800
C1801       C  0.41105282  0.78835737  0.90080300    -0.26000
C1802       C  0.38715855  0.80970982  0.92121323    -0.14100
C1803       C  0.36090874  0.83893273  0.90863862     0.36600
C1804       C  0.35779433  0.84493139  0.87612082    -0.25400
C1805       C  0.38039032  0.82211861  0.85583381    -0.14700
C1806       C  0.40763807  0.79406752  0.86839554     0.37700
N1807       N  0.43066195  0.77001613  0.84819057    -0.88900
H1808       H  0.43061186  0.76498208  0.90982004     0.18800
H1809       H  0.33768318  0.86749501  0.86665701     0.18800
N1810       N  0.33704504  0.86219167  0.92878640    -0.87900
H1811       H  0.42492169  0.74013332  0.85319541     0.36100
H1812       H  0.45998199  0.77459308  0.85338888     0.41200
H1813       H  0.30793592  0.85794992  0.92266411     0.40900
H1814       H  0.34306784  0.89217715  0.92467371     0.35800
C1815       C  0.36788046  0.83799921  0.58791988    -0.26000
C1816       C  0.38823530  0.80356381  0.57912558    -0.14100
C1817       C  0.40782153  0.77973308  0.60242916     0.36600
C1818       C  0.40304909  0.78869321  0.63399799    -0.25400
C1819       C  0.38107509  0.82197156  0.64279136    -0.14700
C1820       C  0.36647628  0.84892279  0.61927869     0.37700
N1821       N  0.35189435  0.88807836  0.62618176    -0.88900
H1822       H  0.35388499  0.85712382  0.57019798     0.18800
H1823       H  0.41632864  0.76950825  0.65201632     0.18800
N1824       N  0.43162396  0.74595386  0.59423430    -0.87900
H1825       H  0.36775513  0.90850926  0.61295286     0.36100
H1826       H  0.35824368  0.89477289  0.64926993     0.41200
H1827       H  0.41339173  0.72453433  0.58537454     0.40900
H1828       H  0.44505382  0.73287240  0.61409061     0.35800
C1829       C  0.38058490  0.64732204  0.87710708    -0.26000
C1830       C  0.36604130  0.67593702  0.85536689    -0.14100
C1831       C  0.34252093  0.70766986  0.86560208     0.36600
C1832       C  0.33616087  0.71172315  0.89764928    -0.25400
C1833       C  0.35326418  0.68484840  0.91970825    -0.14700
C1834       C  0.37513690  0.65187042  0.90932257     0.37700
N1835       N  0.39232290  0.62374539  0.93152529    -0.88900
H1836       H  0.39620131  0.62143083  0.86880114     0.18800
H1837       H  0.31989663  0.73750388  0.90550168     0.18800
N1838       N  0.32550800  0.73574690  0.84326303    -0.87900
H1839       H  0.40744909  0.60121404  0.92004859     0.36100
H1840       H  0.36967202  0.61014672  0.94353551     0.41200
H1841       H  0.34814168  0.74960852  0.83145851     0.40900
H1842       H  0.30985980  0.75808009  0.85454956     0.35800
C1843       C  0.37117554  0.64748968  0.58951408    -0.26000
C1844       C  0.34855273  0.68000447  0.57800896    -0.14100
C1845       C  0.33027151  0.70553569  0.59940137     0.36600
C1846       C  0.33854573  0.70085791  0.63128716    -0.25400
C1847       C  0.36354052  0.67031141  0.64255314    -0.14700
C1848       C  0.37736555  0.64145068  0.62182290     0.37700
N1849       N  0.39714629  0.60608823  0.63369679    -0.88900
H1850       H  0.38481212  0.62748521  0.57326294     0.18800
H1851       H  0.32573937  0.72152644  0.64746223     0.18800
N1852       N  0.30520076  0.73785617  0.58881906    -0.87900
H1853       H  0.40536065  0.58786743  0.61537600     0.36100
H1854       H  0.37728206  0.59005966  0.64705444     0.41200
H1855       H  0.31660208  0.76435837  0.59680339     0.40900
H1856       H  0.27805782  0.73419948  0.59915646     0.35800
O1857       O  0.66140638  0.27286146  0.46602272    -0.72600
O1858       O  0.63711407  0.19289728  0.03362209    -0.73600
O1859       O  0.63850648  0.19495906  0.46637131    -0.62200
O1860       O  0.66160860  0.27029270  0.03424743    -0.70600
O1861       O  0.59985178  0.29097873  0.03405317    -0.70200
O1862       O  0.57736745  0.21766445  0.46383938    -0.61400
O1863       O  0.57535045  0.21362402  0.03175124    -0.73900
O1864       O  0.60022364  0.29522113  0.46640012    -0.72700
Cu1865     Cu  0.65176752  0.23208680  0.00009956     1.04600
Cu1866     Cu  0.58608326  0.25502997  0.49899489     1.04300
C1867       C  0.63346770  0.29367892  0.45352408     0.93600
C1868       C  0.60314552  0.19409077  0.04541937     0.92700
C1869       C  0.60567003  0.19780031  0.45227783     0.84900
C1870       C  0.63356181  0.28906812  0.04700809     0.91100
O1871       O  0.73223446  0.05126603  0.03336951    -0.72600
O1872       O  0.71605281  0.47838839  0.46095085    -0.73600
O1873       O  0.70842872  0.47382540  0.02866311    -0.62200
O1874       O  0.73867925  0.05686460  0.46615717    -0.70600
O1875       O  0.55026771  0.03630626  0.46960635    -0.70200
O1876       O  0.52016880  0.45354289  0.03349343    -0.61400
O1877       O  0.52761028  0.45801118  0.46646772    -0.73900
O1878       O  0.54405392  0.03086659  0.03660413    -0.72700
Cu1879     Cu  0.72170086  0.01580460  0.99707881     1.04600
Cu1880     Cu  0.53756114  0.99398476  0.00161671     1.04300
C1881       C  0.76485919  0.04911332  0.04805126     0.93600
C1882       C  0.74569809  0.45905788  0.45094892     0.92700
C1883       C  0.73521886  0.45405255  0.04338726     0.84900
C1884       C  0.77337408  0.05717509  0.45587043     0.91100
C1885       C  0.71004744  0.12362305  0.25113870     0.30300
C1886       C  0.53974638  0.12362022  0.25023007     0.30300
C1887       C  0.72984298  0.10333160  0.22288143    -0.05900
C1888       C  0.72890313  0.16500279  0.25037483    -0.06600
C1889       C  0.73147464  0.10270386  0.27971491    -0.06500
C1890       C  0.52036481  0.10313307  0.22322618    -0.05900
C1891       C  0.51930986  0.16467504  0.24991976    -0.06600
C1892       C  0.52195273  0.10207407  0.27799132    -0.06500
C1893       C  0.53338497  0.08844252  0.19571731    -0.31900
N1894       N  0.75230655  0.08208680  0.17733359     0.14600
C1895       C  0.71934653  0.08958454  0.19374846    -0.31900
H1896       H  0.69020031  0.08720086  0.18450487     0.16500
C1897       C  0.53114301  0.20355033  0.24964692    -0.30900
N1898       N  0.74911650  0.22777058  0.25009403     0.13300
C1899       C  0.71695667  0.20462131  0.25048333    -0.30900
C1900       C  0.53730505  0.08979718  0.30612153    -0.31200
N1901       N  0.75831424  0.08664829  0.32673686     0.13800
H1902       H  0.56788436  0.08805227  0.31222154     0.16400
C1903       C  0.72387679  0.09345008  0.31097241    -0.31200
H1904       H  0.69570421  0.09387320  0.32188110     0.16400
H1905       H  0.68716513  0.21552621  0.25100155     0.16400
H1906       H  0.56328855  0.08583638  0.18829342     0.16500
H1907       H  0.56086929  0.21333799  0.24934338     0.16500
C1908       C  0.53888413  0.37379257  0.24757845     0.30300
C1909       C  0.70916007  0.37431532  0.24869295     0.30300
C1910       C  0.51762801  0.39391886  0.21889085    -0.05900
C1911       C  0.51982970  0.33256820  0.24911185    -0.06600
C1912       C  0.51938322  0.39491706  0.27527939    -0.06500
C1913       C  0.72712995  0.39457792  0.22017441    -0.05900
C1914       C  0.72938609  0.33308998  0.24969866    -0.06600
C1915       C  0.72904080  0.39548653  0.27545745    -0.06500
C1916       C  0.71267390  0.40856142  0.19194558    -0.31900
N1917       N  0.74269478  0.41360266  0.17244327     0.14600
C1918       C  0.52647855  0.40606107  0.18865313    -0.31900
H1919       H  0.55506835  0.40775772  0.17878310     0.16500
C1920       C  0.71746691  0.29422150  0.25049164    -0.30900
N1921       N  0.74946555  0.26990633  0.25026389     0.13300
C1922       C  0.53167541  0.29295870  0.24948112    -0.30100
C1923       C  0.71723805  0.41099870  0.30320436    -0.31200
N1924       N  0.74907002  0.41799613  0.32116382     0.13800
H1925       H  0.68734414  0.41474853  0.31023978     0.16400
C1926       C  0.53099353  0.40864454  0.30385442    -0.31200
H1927       H  0.56071766  0.40835424  0.31195201     0.16400
H1928       H  0.56144442  0.28200186  0.24885867     0.16400
H1929       H  0.68238223  0.41175635  0.18503889     0.16500
H1930       H  0.68771868  0.28450080  0.25083208     0.16500
C1931       C  0.58442828  0.37361250  0.24783636     0.30300
C1932       C  0.66420175  0.37373272  0.24865932     0.30300
C1933       C  0.60485342  0.35332285  0.22016487    -0.05900
C1934       C  0.60343012  0.41514166  0.24767019    -0.06600
C1935       C  0.60488716  0.35245298  0.27642812    -0.06500
C1936       C  0.64532575  0.35320580  0.22108738    -0.05900
C1937       C  0.64389495  0.41473284  0.24804339    -0.06600
C1938       C  0.64540640  0.35268346  0.27640009    -0.06500
C1939       C  0.65862916  0.33732963  0.19391081    -0.31900
N1940       N  0.62772809  0.33001917  0.17545658     0.14600
C1941       C  0.59467682  0.33790006  0.19165155    -0.31900
H1942       H  0.56553799  0.33400959  0.18298589     0.16500
C1943       C  0.65596789  0.45346144  0.24894682    -0.30900
N1944       N  0.62408896  0.47784661  0.24928955     0.13300
C1945       C  0.59175362  0.45487312  0.24848132    -0.30900
C1946       C  0.65866398  0.33797733  0.30473063    -0.31200
N1947       N  0.62768306  0.32963846  0.32268844     0.13800
H1948       H  0.68860308  0.33668499  0.31276611     0.16400
C1949       C  0.59465776  0.33757302  0.30558910    -0.31200
H1950       H  0.56548146  0.33501412  0.31449767     0.16400
H1951       H  0.56200685  0.46593854  0.24884096     0.16400
H1952       H  0.68861702  0.33412900  0.18684613     0.16500
H1953       H  0.68575597  0.46303326  0.24967551     0.16500
C1954       C  0.58469102  0.12423263  0.25037442     0.30300
C1955       C  0.66446269  0.12401528  0.25085221     0.30300
C1956       C  0.60362855  0.14527989  0.27741842    -0.05900
C1957       C  0.60498826  0.08313365  0.25125981    -0.06600
C1958       C  0.60316120  0.14511951  0.22270807    -0.06500
C1959       C  0.64410867  0.14483107  0.27852419    -0.05900
C1960       C  0.64542739  0.08262723  0.25153405    -0.06600
C1961       C  0.64369108  0.14468397  0.22197089    -0.06500
C1962       C  0.65383768  0.16034858  0.30721072    -0.31900
N1963       N  0.62048447  0.16957995  0.32262229     0.14600
C1964       C  0.58994561  0.16199740  0.30398833    -0.31900
H1965       H  0.55982728  0.16495557  0.31079729     0.16500
C1966       C  0.65709366  0.04289775  0.25112408    -0.30900
N1967       N  0.62474812  0.01993567  0.25063434     0.13300
C1968       C  0.59288835  0.04436814  0.25078676    -0.30900
C1969       C  0.65276571  0.15760495  0.19192006    -0.31200
N1970       N  0.61904651  0.16539625  0.17563663     0.13800
H1971       H  0.68137144  0.15916427  0.18204042     0.16400
C1972       C  0.58891393  0.15970606  0.19480992    -0.31200
H1973       H  0.55865792  0.16222857  0.18768149     0.16400
H1974       H  0.56309647  0.03480127  0.25012817     0.16400
H1975       H  0.68276056  0.16320648  0.31675414     0.16500
H1976       H  0.68683856  0.03183287  0.25070911     0.16500
C1977       C  0.53010345  0.44758953  0.40192903    -0.26000
C1978       C  0.74587796  0.44309166  0.41901032    -0.14100
C1979       C  0.71247772  0.42952411  0.40375736     0.36600
C1980       C  0.71439751  0.42044056  0.37184301    -0.25400
C1981       C  0.74831570  0.42726837  0.35414395    -0.14700
C1982       C  0.53118015  0.44235885  0.36966311     0.37700
N1983       N  0.56505938  0.45413121  0.35273285    -0.88900
H1984       H  0.55589374  0.45771464  0.41351284     0.18800
H1985       H  0.68901658  0.40806828  0.36102588     0.18800
N1986       N  0.67688541  0.42494710  0.42058929    -0.87900
H1987       H  0.58643726  0.46483829  0.36769173     0.36100
H1988       H  0.55671288  0.47774159  0.33759678     0.41200
H1989       H  0.68152517  0.40225593  0.43744885     0.40900
H1990       H  0.65481596  0.41560325  0.40569416     0.35800
C1991       C  0.71739314  0.45560501  0.12934189    -0.26000
C1992       C  0.73765062  0.42110296  0.13949227    -0.14100
C1993       C  0.49858522  0.39262995  0.11729419     0.36600
C1994       C  0.49522677  0.40224990  0.08537958    -0.25400
C1995       C  0.72783627  0.43840543  0.07516659    -0.14700
C1996       C  0.71159701  0.46427292  0.09741040     0.37700
N1997       N  0.69214766  0.50085386  0.08759855    -0.88900
H1998       H  0.70687065  0.47623235  0.14651600     0.18800
H1999       H  0.50685223  0.38178748  0.06851592     0.18800
N2000       N  0.51172294  0.35340267  0.12646734    -0.87900
H2001       H  0.68440126  0.51760339  0.10689231     0.36100
H2002       H  0.66613375  0.49344384  0.07655177     0.41200
H2003       H  0.49042704  0.34052804  0.14045809     0.40900
H2004       H  0.53692776  0.35571524  0.13977602     0.35800
C2005       C  0.54768021  0.06161701  0.37164127    -0.26000
C2006       C  0.76572133  0.08447263  0.35997217    -0.14100
C2007       C  0.74565595  0.10927724  0.38067326     0.36600
C2008       C  0.75145636  0.10344052  0.41299395    -0.25400
C2009       C  0.77977086  0.07609196  0.42481258    -0.14700
C2010       C  0.55620633  0.05885181  0.40373028     0.37700
N2011       N  0.59155904  0.03907690  0.41458195    -0.88900
H2012       H  0.56606239  0.04564405  0.35566042     0.18800
H2013       H  0.73276729  0.11909457  0.42901321     0.18800
N2014       N  0.72068034  0.14101590  0.36886935    -0.87900
H2015       H  0.60905048  0.03145841  0.39573791     0.36100
H2016       H  0.58471964  0.01236572  0.42577343     0.41200
H2017       H  0.73790050  0.16040426  0.35581848     0.40900
H2018       H  0.70981972  0.15762117  0.38727674     0.35800
C2019       C  0.74816156  0.09660817  0.09001261    -0.26000
C2020       C  0.76695694  0.06153219  0.08074201    -0.14100
C2021       C  0.53327556  0.03506624  0.10374489     0.36600
C2022       C  0.52628878  0.04160129  0.13527813    -0.25400
C2023       C  0.75579562  0.07554895  0.14456637    -0.14700
C2024       C  0.74504754  0.10524039  0.12176992     0.37700
N2025       N  0.73488798  0.14531742  0.12983202    -0.88900
H2026       H  0.73729820  0.11802140  0.07251317     0.18800
H2027       H  0.53741397  0.02032912  0.15278881     0.18800
N2028       N  0.55618879  0.00096817  0.09522400    -0.87900
H2029       H  0.45627239  0.15153896  0.12270191     0.36100
H2030       H  0.48711780  0.14946083  0.15379946     0.41200
H2031       H  0.79379571  0.97551045  0.10495876     0.40900
H2032       H  0.83387214  0.00345093  0.10524777     0.35800
C2033       C  0.66105332  0.28835561  0.40080211    -0.26000
C2034       C  0.63715963  0.30970851  0.42121251    -0.14100
C2035       C  0.61091074  0.33893248  0.40863813     0.36600
C2036       C  0.60779653  0.34493167  0.37612035    -0.25400
C2037       C  0.63039190  0.32211851  0.35583316    -0.14700
C2038       C  0.65763894  0.29406649  0.36839467     0.37700
N2039       N  0.68066254  0.27001508  0.34818948    -0.88900
H2040       H  0.68061165  0.26497962  0.40981900     0.18800
H2041       H  0.58768603  0.36749601  0.36665668     0.18800
N2042       N  0.58704777  0.36219192  0.42878611    -0.87900
H2043       H  0.67492172  0.24013229  0.35319387     0.36100
H2044       H  0.70998267  0.27459133  0.35338800     0.41200
H2045       H  0.55793852  0.35795124  0.42266372     0.40900
H2046       H  0.59307149  0.39217725  0.42467370     0.35800
C2047       C  0.61788251  0.33800062  0.08791854    -0.26000
C2048       C  0.63823714  0.30356502  0.07912442    -0.14100
C2049       C  0.65782339  0.27973444  0.10242810     0.36600
C2050       C  0.65305113  0.28869487  0.13399687    -0.25400
C2051       C  0.63107705  0.32197321  0.14279012    -0.14700
C2052       C  0.61647830  0.34892436  0.11927732     0.37700
N2053       N  0.60189640  0.38807998  0.12618020    -0.88900
H2054       H  0.60388702  0.35712510  0.07019655     0.18800
H2055       H  0.66633073  0.26951003  0.15201527     0.18800
N2056       N  0.68162554  0.24595495  0.09423338    -0.87900
H2057       H  0.61775775  0.40851076  0.11295169     0.36100
H2058       H  0.60824476  0.39477434  0.14926859     0.41200
H2059       H  0.66339307  0.22453537  0.08537401     0.40900
H2060       H  0.69505559  0.23287372  0.11408971     0.35800
C2061       C  0.63058615  0.14732153  0.37710788    -0.26000
C2062       C  0.61604223  0.17593638  0.35536772    -0.14100
C2063       C  0.59252121  0.20766873  0.36560291     0.36600
C2064       C  0.58616073  0.21172163  0.39765010    -0.25400
C2065       C  0.60326429  0.18484705  0.41970905    -0.14700
C2066       C  0.62513781  0.15186962  0.40932336     0.37700
N2067       N  0.64232441  0.12374489  0.43152602    -0.88900
H2068       H  0.64620302  0.12143063  0.36880192     0.18800
H2069       H  0.56989599  0.23750201  0.40550250     0.18800
N2070       N  0.57550791  0.23574561  0.34326391    -0.87900
H2071       H  0.65745107  0.10121394  0.42004930     0.36100
H2072       H  0.61967382  0.11014567  0.44353625     0.41200
H2073       H  0.59814137  0.24960789  0.33145958     0.40900
H2074       H  0.55985913  0.25807836  0.35455046     0.35800
C2075       C  0.62117490  0.14748985  0.08951483    -0.26000
C2076       C  0.59855314  0.18000544  0.07800982    -0.14100
C2077       C  0.58027302  0.20553740  0.09940228     0.36600
C2078       C  0.58854733  0.20085935  0.13128803    -0.25400
C2079       C  0.61354116  0.17031198  0.14255392    -0.14700
C2080       C  0.62736496  0.14145068  0.12182364     0.37700
N2081       N  0.64714446  0.10608749  0.13369748    -0.88900
H2082       H  0.63481057  0.12748480  0.07326363     0.18800
H2083       H  0.57574180  0.22152833  0.14746315     0.18800
N2084       N  0.55520337  0.23785884  0.08882002    -0.87900
H2085       H  0.65535815  0.08786647  0.11537665     0.36100
H2086       H  0.62727958  0.09005962  0.14705503     0.41200
H2087       H  0.56660561  0.26436058  0.09680436     0.40900
H2088       H  0.52806029  0.23420319  0.09915749     0.35800
O2089       O  0.66140617  0.27286127  0.96602270    -0.72600
O2090       O  0.63711413  0.19289735  0.53362202    -0.73600
O2091       O  0.63850626  0.19495889  0.96637137    -0.62200
O2092       O  0.66160865  0.27029277  0.53424745    -0.70600
O2093       O  0.59985184  0.29097882  0.53405318    -0.70200
O2094       O  0.57736722  0.21766429  0.96383941    -0.61400
O2095       O  0.57535050  0.21362404  0.53175121    -0.73900
O2096       O  0.60022346  0.29522105  0.96640011    -0.72700
Cu2097     Cu  0.65176765  0.23208693  0.50009954     1.04600
Cu2098     Cu  0.58608312  0.25502989  0.99899490     1.04300
C2099       C  0.63346752  0.29367876  0.95352406     0.93600
C2100       C  0.60314559  0.19409082  0.54541934     0.92700
C2101       C  0.60566980  0.19780012  0.95227788     0.84900
C2102       C  0.63356187  0.28906820  0.54700810     0.91100
O2103       O  0.73223438  0.05126600  0.53336955    -0.72600
O2104       O  0.71605270  0.47838826  0.96095082    -0.73600
O2105       O  0.70842875  0.47382555  0.52866313    -0.62200
O2106       O  0.73867926  0.05686451  0.96615708    -0.70600
O2107       O  0.55026788  0.03630640  0.96960634    -0.70200
O2108       O  0.52016892  0.45354299  0.53349336    -0.61400
O2109       O  0.52761018  0.45801103  0.96646775    -0.73900
O2110       O  0.54405380  0.03086639  0.53660418    -0.72700
Cu2111     Cu  0.72170086  0.01580457  0.49707883     1.04600
Cu2112     Cu  0.53756101  0.99398462  0.50161674     1.04300
C2113       C  0.76485912  0.04911333  0.54805126     0.93600
C2114       C  0.74569799  0.45905772  0.95094893     0.92700
C2115       C  0.73521889  0.45405265  0.54338724     0.84900
C2116       C  0.77337412  0.05717506  0.95587041     0.91100
C2117       C  0.71004747  0.12362305  0.75113872     0.30300
C2118       C  0.53974642  0.12362023  0.75023005     0.30300
C2119       C  0.72984299  0.10333158  0.72288145    -0.05900
C2120       C  0.72890314  0.16500281  0.75037484    -0.06600
C2121       C  0.73147468  0.10270386  0.77971492    -0.06500
C2122       C  0.52036482  0.10313317  0.72322612    -0.05900
C2123       C  0.51930991  0.16467506  0.74991977    -0.06600
C2124       C  0.52195279  0.10207401  0.77799129    -0.06500
C2125       C  0.53338492  0.08844264  0.69571723    -0.31900
N2126       N  0.75230655  0.08208661  0.67733366     0.14600
C2127       C  0.71934654  0.08958439  0.69374851    -0.31900
H2128       H  0.69020032  0.08720071  0.68450489     0.16500
C2129       C  0.53114303  0.20355038  0.74964694    -0.30900
N2130       N  0.74911649  0.22777065  0.75009406     0.13300
C2131       C  0.71695667  0.20462136  0.75048336    -0.30900
C2132       C  0.53730509  0.08979706  0.80612149    -0.31200
N2133       N  0.75831428  0.08664815  0.82673684     0.13800
H2134       H  0.56788440  0.08805220  0.81222152     0.16400
C2135       C  0.72387683  0.09344996  0.81097240    -0.31200
H2136       H  0.69570425  0.09387304  0.82188110     0.16400
H2137       H  0.68716513  0.21552625  0.75100158     0.16400
H2138       H  0.56328848  0.08583650  0.68829329     0.16500
H2139       H  0.56086930  0.21333807  0.74934338     0.16500
C2140       C  0.53888412  0.37379265  0.74757843     0.30300
C2141       C  0.70916002  0.37431539  0.74869292     0.30300
C2142       C  0.51762797  0.39391894  0.71889083    -0.05900
C2143       C  0.51982970  0.33256828  0.74911185    -0.06600
C2144       C  0.51938319  0.39491713  0.77527936    -0.06500
C2145       C  0.72712990  0.39457794  0.72017436    -0.05900
C2146       C  0.72938606  0.33309006  0.74969866    -0.06600
C2147       C  0.72904071  0.39548664  0.77545742    -0.06500
C2148       C  0.71267389  0.40856135  0.69194549    -0.31900
N2149       N  0.74269481  0.41360273  0.67244325     0.14600
C2150       C  0.52647851  0.40606120  0.68865313    -0.31900
H2151       H  0.55506831  0.40775790  0.67878312     0.16500
C2152       C  0.71746689  0.29422158  0.75049169    -0.30900
N2153       N  0.74946552  0.26990641  0.75026392     0.13300
C2154       C  0.53167541  0.29295877  0.74948117    -0.30100
C2155       C  0.71723793  0.41099883  0.80320432    -0.31200
N2156       N  0.74906991  0.41799620  0.82116380     0.13800
H2157       H  0.68734401  0.41474865  0.81023975     0.16400
C2158       C  0.53099346  0.40864453  0.80385442    -0.31200
H2159       H  0.56071756  0.40835411  0.81195206     0.16400
H2160       H  0.56144441  0.28200194  0.74885878     0.16400
H2161       H  0.68238223  0.41175619  0.68503872     0.16500
H2162       H  0.68771867  0.28450088  0.75083217     0.16500
C2163       C  0.58442825  0.37361257  0.74783636     0.30300
C2164       C  0.66420171  0.37373278  0.74865932     0.30300
C2165       C  0.60485341  0.35332294  0.72016487    -0.05900
C2166       C  0.60343008  0.41514173  0.74767020    -0.06600
C2167       C  0.60488712  0.35245302  0.77642812    -0.06500
C2168       C  0.64532572  0.35320583  0.72108740    -0.05900
C2169       C  0.64389490  0.41473290  0.74804340    -0.06600
C2170       C  0.64540638  0.35268353  0.77640011    -0.06500
C2171       C  0.65862914  0.33732958  0.69391084    -0.31900
N2172       N  0.62772809  0.33001923  0.67545657     0.14600
C2173       C  0.59467683  0.33790017  0.69165155    -0.31900
H2174       H  0.56553801  0.33400974  0.68298590     0.16500
C2175       C  0.65596783  0.45346150  0.74894684    -0.30900
N2176       N  0.62408891  0.47784667  0.74928958     0.13300
C2177       C  0.59175356  0.45487319  0.74848134    -0.30900
C2178       C  0.65866395  0.33797738  0.80473065    -0.31200
N2179       N  0.62768302  0.32963842  0.82268843     0.13800
H2180       H  0.68860305  0.33668513  0.81276617     0.16400
C2181       C  0.59465770  0.33757291  0.80558908    -0.31200
H2182       H  0.56548139  0.33501394  0.81449763     0.16400
H2183       H  0.56200679  0.46593862  0.74884098     0.16400
H2184       H  0.68861699  0.33412885  0.68684620     0.16500
H2185       H  0.68575590  0.46303333  0.74967552     0.16500
C2186       C  0.58469106  0.12423264  0.75037440     0.30300
C2187       C  0.66446272  0.12401527  0.75085223     0.30300
C2188       C  0.60362856  0.14527990  0.77741840    -0.05900
C2189       C  0.60498831  0.08313366  0.75125982    -0.06600
C2190       C  0.60316125  0.14511952  0.72270806    -0.06500
C2191       C  0.64410868  0.14483103  0.77852422    -0.05900
C2192       C  0.64542743  0.08262722  0.75153407    -0.06600
C2193       C  0.64369113  0.14468395  0.72197088    -0.06500
C2194       C  0.65383769  0.16034847  0.80721077    -0.31900
N2195       N  0.62048449  0.16957991  0.82262231     0.14600
C2196       C  0.58994563  0.16199744  0.80398831    -0.31900
H2197       H  0.55982730  0.16495562  0.81079727     0.16500
C2198       C  0.65709368  0.04289773  0.75112412    -0.30900
N2199       N  0.62474814  0.01993566  0.75063436     0.13300
C2200       C  0.59288838  0.04436816  0.75078676    -0.30900
C2201       C  0.65276574  0.15760495  0.69192006    -0.31200
N2202       N  0.61904654  0.16539630  0.67563663     0.13800
H2203       H  0.68137148  0.15916423  0.68204041     0.16400
C2204       C  0.58891397  0.15970614  0.69480994    -0.31200
H2205       H  0.55865795  0.16222868  0.68768154     0.16400
H2206       H  0.56309649  0.03480133  0.75012810     0.16400
H2207       H  0.68276056  0.16320632  0.81675422     0.16500
H2208       H  0.68683857  0.03183283  0.75070914     0.16500
C2209       C  0.53010344  0.44758937  0.90192902    -0.26000
C2210       C  0.74587790  0.44309156  0.91901033    -0.14100
C2211       C  0.71247765  0.42952413  0.90375735     0.36600
C2212       C  0.71439743  0.42044066  0.87184299    -0.25400
C2213       C  0.74831560  0.42726846  0.85414393    -0.14700
C2214       C  0.53118008  0.44235879  0.86966308     0.37700
N2215       N  0.56505917  0.45413131  0.85273272    -0.88900
H2216       H  0.55589377  0.45771438  0.91351283     0.18800
H2217       H  0.68901648  0.40806846  0.86102585     0.18800
N2218       N  0.67688536  0.42494716  0.92058930    -0.87900
H2219       H  0.58643715  0.46483836  0.86769159     0.36100
H2220       H  0.55671254  0.47774177  0.83759683     0.41200
H2221       H  0.68152513  0.40225598  0.93744884     0.40900
H2222       H  0.65481583  0.41560341  0.90569419     0.35800
C2223       C  0.71739320  0.45560512  0.62934190    -0.26000
C2224       C  0.73765069  0.42110307  0.63949226    -0.14100
C2225       C  0.49858526  0.39263005  0.61729418     0.36600
C2226       C  0.49522685  0.40225002  0.58537958    -0.25400
C2227       C  0.72783635  0.43840556  0.57516659    -0.14700
C2228       C  0.71159706  0.46427303  0.59741041     0.37700
N2229       N  0.69214770  0.50085397  0.58759857    -0.88900
H2230       H  0.70687070  0.47623245  0.64651602     0.18800
H2231       H  0.50685227  0.38178758  0.56851592     0.18800
N2232       N  0.51172298  0.35340277  0.62646734    -0.87900
H2233       H  0.68440130  0.51760349  0.60689234     0.36100
H2234       H  0.66613379  0.49344394  0.57655179     0.41200
H2235       H  0.49042707  0.34052816  0.64045810     0.40900
H2236       H  0.53692779  0.35571536  0.63977604     0.35800
C2237       C  0.54768028  0.06161706  0.87164124    -0.26000
C2238       C  0.76572136  0.08447256  0.85997216    -0.14100
C2239       C  0.74565595  0.10927716  0.88067325     0.36600
C2240       C  0.75145643  0.10344050  0.91299394    -0.25400
C2241       C  0.77977093  0.07609195  0.92481257    -0.14700
C2242       C  0.55620641  0.05885189  0.90373024     0.37700
N2243       N  0.59155912  0.03907698  0.91458185    -0.88900
H2244       H  0.56606247  0.04564408  0.85566041     0.18800
H2245       H  0.73276741  0.11909456  0.92901323     0.18800
N2246       N  0.72068019  0.14101571  0.86886939    -0.87900
H2247       H  0.60905042  0.03145837  0.89573779     0.36100
H2248       H  0.58471971  0.01236582  0.92577341     0.41200
H2249       H  0.73790022  0.16040408  0.85581837     0.40900
H2250       H  0.70981966  0.15762103  0.88727675     0.35800
C2251       C  0.74816141  0.09660800  0.59001269    -0.26000
C2252       C  0.76695683  0.06153209  0.58074205    -0.14100
C2253       C  0.53327540  0.03506606  0.60374492     0.36600
C2254       C  0.52628858  0.04160112  0.63527814    -0.25400
C2255       C  0.75579560  0.07554877  0.64456644    -0.14700
C2256       C  0.74504751  0.10524022  0.62176999     0.37700
N2257       N  0.73488804  0.14531727  0.62983208    -0.88900
H2258       H  0.73729796  0.11802121  0.57251325     0.18800
H2259       H  0.53741373  0.02032894  0.65278884     0.18800
N2260       N  0.55618874  0.00096806  0.59522403    -0.87900
H2261       H  0.45627262  0.15153902  0.62270193     0.36100
H2262       H  0.48711804  0.14946076  0.65379948     0.41200
H2263       H  0.79379554  0.97551031  0.60495871     0.40900
H2264       H  0.83387195  0.00345089  0.60524782     0.35800
C2265       C  0.66105321  0.28835552  0.90080208    -0.26000
C2266       C  0.63715952  0.30970837  0.92121250    -0.14100
C2267       C  0.61091074  0.33893240  0.90863814     0.36600
C2268       C  0.60779657  0.34493170  0.87612037    -0.25400
C2269       C  0.63039187  0.32211853  0.85583315    -0.14700
C2270       C  0.65763885  0.29406649  0.86839465     0.37700
N2271       N  0.68066239  0.27001510  0.84818943    -0.88900
H2272       H  0.68061150  0.26497948  0.90981893     0.18800
H2273       H  0.58768609  0.36749606  0.86665673     0.18800
N2274       N  0.58704778  0.36219177  0.92878615    -0.87900
H2275       H  0.67492152  0.24013234  0.85319380     0.36100
H2276       H  0.70998252  0.27459136  0.85338794     0.41200
H2277       H  0.55793853  0.35795109  0.92266375     0.40900
H2278       H  0.59307153  0.39217710  0.92467379     0.35800
C2279       C  0.61788257  0.33800069  0.58791855    -0.26000
C2280       C  0.63823721  0.30356510  0.57912443    -0.14100
C2281       C  0.65782348  0.27973455  0.60242809     0.36600
C2282       C  0.65305118  0.28869498  0.63399686    -0.25400
C2283       C  0.63107707  0.32197330  0.64279010    -0.14700
C2284       C  0.61647835  0.34892444  0.61927731     0.37700
N2285       N  0.60189638  0.38808004  0.62618018    -0.88900
H2286       H  0.60388708  0.35712515  0.57019656     0.18800
H2287       H  0.66633077  0.26951014  0.65201525     0.18800
N2288       N  0.68162576  0.24595513  0.59423340    -0.87900
H2289       H  0.61775766  0.40851087  0.61295164     0.36100
H2290       H  0.60824485  0.39477442  0.64926855     0.41200
H2291       H  0.66339339  0.22453549  0.58537392     0.40900
H2292       H  0.69505573  0.23287391  0.61408974     0.35800
C2293       C  0.63058623  0.14732148  0.87710790    -0.26000
C2294       C  0.61604224  0.17593630  0.85536775    -0.14100
C2295       C  0.59252120  0.20766863  0.86560295     0.36600
C2296       C  0.58616064  0.21172150  0.89765012    -0.25400
C2297       C  0.60326415  0.18484689  0.91970907    -0.14700
C2298       C  0.62513779  0.15186953  0.90932337     0.37700
N2299       N  0.64232425  0.12374476  0.93152606    -0.88900
H2300       H  0.64620312  0.12143058  0.86880194     0.18800
H2301       H  0.56989587  0.23750188  0.90550252     0.18800
N2302       N  0.57550792  0.23574549  0.84326393    -0.87900
H2303       H  0.65745102  0.10121384  0.92004935     0.36100
H2304       H  0.61967356  0.11014549  0.94353609     0.41200
H2305       H  0.59814142  0.24960778  0.83145965     0.40900
H2306       H  0.55985907  0.25807819  0.85455047     0.35800
C2307       C  0.62117508  0.14748999  0.58951485    -0.26000
C2308       C  0.59855331  0.18000557  0.57800982    -0.14100
C2309       C  0.58027318  0.20553752  0.59940228     0.36600
C2310       C  0.58854742  0.20085941  0.63128804    -0.25400
C2311       C  0.61354119  0.17031200  0.64255393    -0.14700
C2312       C  0.62736504  0.14145074  0.62182365     0.37700
N2313       N  0.64714448  0.10608751  0.63369751    -0.88900
H2314       H  0.63481081  0.12748498  0.57326364     0.18800
H2315       H  0.57574189  0.22152837  0.64746318     0.18800
N2316       N  0.55520348  0.23785891  0.58882004    -0.87900
H2317       H  0.65535819  0.08786649  0.61537665     0.36100
H2318       H  0.62727961  0.09005967  0.64705505     0.41200
H2319       H  0.56660566  0.26436068  0.59680438     0.40900
H2320       H  0.52806042  0.23420317  0.59915753     0.35800
O2321       O  0.66140576  0.77286323  0.46602341    -0.72600
O2322       O  0.63711398  0.69289761  0.03362156    -0.73600
O2323       O  0.63850646  0.69496056  0.46637053    -0.62200
O2324       O  0.66160780  0.77029308  0.03424813    -0.70600
O2325       O  0.59985060  0.79097784  0.03405396    -0.70200
O2326       O  0.57736718  0.71766525  0.46383873    -0.61400
O2327       O  0.57534999  0.71362311  0.03175040    -0.73900
O2328       O  0.60022273  0.79522200  0.46640083    -0.72700
Cu2329     Cu  0.65176735  0.73208793  0.00009956     1.04600
Cu2330     Cu  0.58608251  0.75502989  0.49899487     1.04300
C2331       C  0.63346682  0.79368033  0.45352481     0.93600
C2332       C  0.60314527  0.69409029  0.04541861     0.92700
C2333       C  0.60566996  0.69780157  0.45227705     0.84900
C2334       C  0.63356057  0.78906759  0.04700900     0.91100
O2335       O  0.73223346  0.55126458  0.03336909    -0.72600
O2336       O  0.71605176  0.97838957  0.46095152    -0.73600
O2337       O  0.70842854  0.97382726  0.02866405    -0.62200
O2338       O  0.73867895  0.55686363  0.46615678    -0.70600
O2339       O  0.55026788  0.53630616  0.46960614    -0.70200
O2340       O  0.52016841  0.95354390  0.03349393    -0.61400
O2341       O  0.52760877  0.95801164  0.46646819    -0.73900
O2342       O  0.54405310  0.53086585  0.03660395    -0.72700
Cu2343     Cu  0.72170081  0.51580313  0.99707819     1.04600
Cu2344     Cu  0.53756136  0.49398406  0.00161642     1.04300
C2345       C  0.76485813  0.54911229  0.04805095     0.93600
C2346       C  0.74569669  0.95905857  0.45094949     0.92700
C2347       C  0.73521851  0.95405389  0.04338800     0.84900
C2348       C  0.77337382  0.55717461  0.45587017     0.91100
C2349       C  0.71004678  0.62362294  0.25113822     0.30300
C2350       C  0.53974574  0.62362007  0.25022936     0.30300
C2351       C  0.72984223  0.60333120  0.22288104    -0.05900
C2352       C  0.72890247  0.66500264  0.25037408    -0.06600
C2353       C  0.73147404  0.60270397  0.27971453    -0.06500
C2354       C  0.52036408  0.60313279  0.22322557    -0.05900
C2355       C  0.51930922  0.66467488  0.24991889    -0.06600
C2356       C  0.52195220  0.60207409  0.27799081    -0.06500
C2357       C  0.53338408  0.58844190  0.19571676    -0.31900
N2358       N  0.75230553  0.58208556  0.17733339     0.14600
C2359       C  0.71934560  0.58958356  0.19374830    -0.31900
H2360       H  0.69019929  0.58719977  0.18450490     0.16500
C2361       C  0.53114234  0.70355020  0.24964601    -0.30900
N2362       N  0.74911577  0.72777041  0.25009331     0.13300
C2363       C  0.71695598  0.70462113  0.25048266    -0.30900
C2364       C  0.53730464  0.58979763  0.30612112    -0.31200
N2365       N  0.75831381  0.58664904  0.32673660     0.13800
H2366       H  0.56788399  0.58805270  0.31222104     0.16400
C2367       C  0.72387631  0.59345065  0.31097215    -0.31200
H2368       H  0.69570374  0.59387381  0.32188087     0.16400
H2369       H  0.68716446  0.71552601  0.25100110     0.16400
H2370       H  0.56328762  0.58583587  0.18829272     0.16500
H2371       H  0.56086860  0.71333793  0.24934246     0.16500
C2372       C  0.53888287  0.87379260  0.24757912     0.30300
C2373       C  0.70915879  0.87431480  0.24869356     0.30300
C2374       C  0.51762670  0.89391873  0.21889149    -0.05900
C2375       C  0.51982866  0.83256807  0.24911241    -0.06600
C2376       C  0.51938175  0.89491690  0.27528005    -0.06500
C2377       C  0.72712861  0.89457742  0.22017499    -0.05900
C2378       C  0.72938502  0.83308963  0.24969923    -0.06600
C2379       C  0.72903935  0.89548604  0.27545810    -0.06500
C2380       C  0.71267256  0.90856022  0.19194596    -0.31900
N2381       N  0.74269348  0.91360163  0.17244372     0.14600
C2382       C  0.52647726  0.90606059  0.18865370    -0.31900
H2383       H  0.55506708  0.90775743  0.17878374     0.16500
C2384       C  0.71746602  0.79422114  0.25049173    -0.30900
N2385       N  0.74946472  0.76990614  0.25026365     0.13300
C2386       C  0.53167453  0.79295861  0.24948117    -0.30100
C2387       C  0.71723642  0.91099802  0.30320502    -0.31200
N2388       N  0.74906828  0.91799585  0.32116447     0.13800
H2389       H  0.68734247  0.91474747  0.31024044     0.16400
C2390       C  0.53099188  0.90864451  0.30385509    -0.31200
H2391       H  0.56071600  0.90835440  0.31195266     0.16400
H2392       H  0.56144356  0.78200190  0.24885853     0.16400
H2393       H  0.68238090  0.91175481  0.18503916     0.16500
H2394       H  0.68771784  0.78450033  0.25083196     0.16500
C2395       C  0.58442699  0.87361272  0.24783709     0.30300
C2396       C  0.66420046  0.87373230  0.24865999     0.30300
C2397       C  0.60485198  0.85332297  0.22016560    -0.05900
C2398       C  0.60342914  0.91514179  0.24767110    -0.06600
C2399       C  0.60488572  0.85245293  0.27642875    -0.06500
C2400       C  0.64532428  0.85320556  0.22108807    -0.05900
C2401       C  0.64389398  0.91473259  0.24804425    -0.06600
C2402       C  0.64540498  0.85268304  0.27640070    -0.06500
C2403       C  0.65862752  0.83732841  0.19391180    -0.31900
N2404       N  0.62772634  0.83001773  0.17545775     0.14600
C2405       C  0.59467518  0.83789944  0.19165261    -0.31900
H2406       H  0.56553630  0.83400915  0.18298699     0.16500
C2407       C  0.65596735  0.95346106  0.24894796    -0.30900
N2408       N  0.62408870  0.97784656  0.24929093     0.13300
C2409       C  0.59175309  0.95487338  0.24848263    -0.30900
C2410       C  0.65866241  0.83797664  0.30473115    -0.31200
N2411       N  0.62768141  0.82963809  0.32268899     0.13800
H2412       H  0.68860151  0.83668416  0.31276663     0.16400
C2413       C  0.59465617  0.83757295  0.30558967    -0.31200
H2414       H  0.56547984  0.83501433  0.31449823     0.16400
H2415       H  0.56200641  0.96593906  0.24884240     0.16400
H2416       H  0.68861535  0.83412727  0.18684715     0.16500
H2417       H  0.68575553  0.96303258  0.24967659     0.16500
C2418       C  0.58469035  0.62423252  0.25037368     0.30300
C2419       C  0.66446202  0.62401529  0.25085164     0.30300
C2420       C  0.60362776  0.64527995  0.27741765    -0.05900
C2421       C  0.60498766  0.58313355  0.25125915    -0.06600
C2422       C  0.60316059  0.64511937  0.22270733    -0.06500
C2423       C  0.64410787  0.64483108  0.27852356    -0.05900
C2424       C  0.64542678  0.58262728  0.25153339    -0.06600
C2425       C  0.64369049  0.64468393  0.22197024    -0.06500
C2426       C  0.65383673  0.66034879  0.30721005    -0.31900
N2427       N  0.62048348  0.66958044  0.32262144     0.14600
C2428       C  0.58994470  0.66199788  0.30398739    -0.31900
H2429       H  0.55982634  0.66495627  0.31079620     0.16500
C2430       C  0.65709327  0.54289795  0.25112300    -0.30900
N2431       N  0.62474792  0.51993570  0.25063314     0.13300
C2432       C  0.59288795  0.54436794  0.25078581    -0.30900
C2433       C  0.65276518  0.65760480  0.19191940    -0.31200
N2434       N  0.61904599  0.66539602  0.17563589     0.13800
H2435       H  0.68137096  0.65916392  0.18203977     0.16400
C2436       C  0.58891336  0.65970576  0.19480914    -0.31200
H2437       H  0.55865735  0.66222803  0.18768065     0.16400
H2438       H  0.56309614  0.53480085  0.25012712     0.16400
H2439       H  0.68275957  0.66320667  0.31675358     0.16500
H2440       H  0.68683822  0.53183326  0.25070776     0.16500
C2441       C  0.53010159  0.94758978  0.40192963    -0.26000
C2442       C  0.74587619  0.94309219  0.41901089    -0.14100
C2443       C  0.71247586  0.92952463  0.40375800     0.36600
C2444       C  0.71439560  0.92044087  0.37184366    -0.25400
C2445       C  0.74831386  0.92726838  0.35414456    -0.14700
C2446       C  0.53117832  0.94235882  0.36966375     0.37700
N2447       N  0.56505745  0.95413130  0.35273341    -0.88900
H2448       H  0.55589188  0.95771504  0.41351335     0.18800
H2449       H  0.68901457  0.90806874  0.36102656     0.18800
N2450       N  0.67688352  0.92494786  0.42058998    -0.87900
H2451       H  0.58643535  0.96483850  0.36769222     0.36100
H2452       H  0.55671075  0.97774161  0.33759734     0.41200
H2453       H  0.68152323  0.90225687  0.43744970     0.40900
H2454       H  0.65481401  0.91560387  0.40569496     0.35800
C2455       C  0.71739292  0.95560520  0.12934273    -0.26000
C2456       C  0.73764946  0.92110247  0.13949279    -0.14100
C2457       C  0.49858367  0.89262967  0.11729448     0.36600
C2458       C  0.49522569  0.90225034  0.08537993    -0.25400
C2459       C  0.72783589  0.93840643  0.07516726    -0.14700
C2460       C  0.71159716  0.96427385  0.09741134     0.37700
N2461       N  0.69214860  0.00085537  0.08759990    -0.88900
H2462       H  0.70687084  0.97623247  0.14651705     0.18800
H2463       H  0.50685075  0.88178796  0.06851608     0.18800
N2464       N  0.51172045  0.85340195  0.12646734    -0.87900
H2465       H  0.68440255  0.01760470  0.10689383     0.36100
H2466       H  0.66613451  0.99344609  0.07655302     0.41200
H2467       H  0.49042398  0.84052750  0.14045762     0.40900
H2468       H  0.53692500  0.85571367  0.13977652     0.35800
C2469       C  0.54768012  0.56161765  0.37164090    -0.26000
C2470       C  0.76572099  0.58447320  0.35997194    -0.14100
C2471       C  0.74565526  0.60927722  0.38067323     0.36600
C2472       C  0.75145567  0.60344009  0.41299389    -0.25400
C2473       C  0.77977043  0.57609171  0.42481237    -0.14700
C2474       C  0.55620612  0.55885201  0.40372993     0.37700
N2475       N  0.59155888  0.53907711  0.41458150    -0.88900
H2476       H  0.56606246  0.54564502  0.35565996     0.18800
H2477       H  0.73276644  0.61909371  0.42901328     0.18800
N2478       N  0.72067926  0.64101570  0.36886959    -0.87900
H2479       H  0.60905012  0.53145842  0.39573739     0.36100
H2480       H  0.58471953  0.51236605  0.42577315     0.41200
H2481       H  0.73789921  0.66040450  0.35581894     0.40900
H2482       H  0.70981838  0.65762054  0.38727712     0.35800
C2483       C  0.74816055  0.59660701  0.09001244    -0.26000
C2484       C  0.76695556  0.56153090  0.08074179    -0.14100
C2485       C  0.53327401  0.53506465  0.10374467     0.36600
C2486       C  0.52628704  0.54159955  0.13527789    -0.25400
C2487       C  0.75579434  0.57554753  0.14456618    -0.14700
C2488       C  0.74504693  0.60523925  0.12176976     0.37700
N2489       N  0.73488872  0.64531657  0.12983195    -0.88900
H2490       H  0.73729748  0.61802043  0.07251302     0.18800
H2491       H  0.53741204  0.52032727  0.15278859     0.18800
N2492       N  0.55618770  0.50096693  0.09522373    -0.87900
H2493       H  0.45627354  0.65153946  0.12270141     0.36100
H2494       H  0.48711835  0.64945978  0.15379933     0.41200
H2495       H  0.79379473  0.47550915  0.10495843     0.40900
H2496       H  0.83387084  0.50345008  0.10524753     0.35800
C2497       C  0.66105268  0.78835729  0.40080295    -0.26000
C2498       C  0.63715841  0.80970975  0.42121318    -0.14100
C2499       C  0.61090860  0.83893266  0.40863856     0.36600
C2500       C  0.60779422  0.84493137  0.37612076    -0.25400
C2501       C  0.63039024  0.82211859  0.35583375    -0.14700
C2502       C  0.65763796  0.79406746  0.36839550     0.37700
N2503       N  0.68066183  0.77001605  0.34819054    -0.88900
H2504       H  0.68061170  0.76498199  0.40982000     0.18800
H2505       H  0.58768307  0.86749500  0.36665693     0.18800
N2506       N  0.58704494  0.86219159  0.42878636    -0.87900
H2507       H  0.67492155  0.74013324  0.35319539     0.36100
H2508       H  0.70998187  0.77459297  0.35338887     0.41200
H2509       H  0.55793583  0.85794996  0.42266402     0.40900
H2510       H  0.59306788  0.89217707  0.42467376     0.35800
C2511       C  0.61788036  0.83799929  0.08791982    -0.26000
C2512       C  0.63823538  0.80356399  0.07912554    -0.14100
C2513       C  0.65782172  0.77973334  0.10242912     0.36600
C2514       C  0.65304930  0.78869349  0.13399795    -0.25400
C2515       C  0.63107510  0.82197170  0.14279130    -0.14700
C2516       C  0.61647615  0.84892287  0.11927862     0.37700
N2517       N  0.60189415  0.88807842  0.12618170    -0.88900
H2518       H  0.60388478  0.85712382  0.07019791     0.18800
H2519       H  0.66632898  0.76950862  0.15201629     0.18800
N2520       N  0.68162415  0.74595410  0.09423428    -0.87900
H2521       H  0.61775481  0.90850934  0.11295273     0.36100
H2522       H  0.60824365  0.89477303  0.14926984     0.41200
H2523       H  0.66339189  0.72453453  0.08537460     0.40900
H2524       H  0.69505403  0.73287270  0.11409059     0.35800
C2525       C  0.63058487  0.64732199  0.37710708    -0.26000
C2526       C  0.61604119  0.67593692  0.35536687    -0.14100
C2527       C  0.59252081  0.70766975  0.36560206     0.36600
C2528       C  0.58616076  0.71172305  0.39764927    -0.25400
C2529       C  0.60326413  0.68484836  0.41970824    -0.14700
C2530       C  0.62513690  0.65187042  0.40932257     0.37700
N2531       N  0.64232287  0.62374539  0.43152529    -0.88900
H2532       H  0.64620129  0.62143078  0.36880115     0.18800
H2533       H  0.56989650  0.73750376  0.40550166     0.18800
N2534       N  0.57550789  0.73574679  0.34326300    -0.87900
H2535       H  0.65744907  0.60121403  0.42004862     0.36100
H2536       H  0.61967195  0.61014677  0.44353549     0.41200
H2537       H  0.59814157  0.74960842  0.33145849     0.40900
H2538       H  0.55985969  0.75807998  0.35454954     0.35800
C2539       C  0.62117555  0.64748974  0.08951408    -0.26000
C2540       C  0.59855281  0.68000459  0.07800897    -0.14100
C2541       C  0.58027161  0.70553583  0.09940137     0.36600
C2542       C  0.58854581  0.70085801  0.13128716    -0.25400
C2543       C  0.61354067  0.67031154  0.14255315    -0.14700
C2544       C  0.62736560  0.64145074  0.12182291     0.37700
N2545       N  0.64714622  0.60608821  0.13369679    -0.88900
H2546       H  0.63481210  0.62748524  0.07326293     0.18800
H2547       H  0.57573940  0.72152649  0.14746223     0.18800
N2548       N  0.55520089  0.73785638  0.08881905    -0.87900
H2549       H  0.65536044  0.58786739  0.11537598     0.36100
H2550       H  0.62728195  0.59005968  0.14705444     0.41200
H2551       H  0.56660211  0.76435855  0.09680349     0.40900
H2552       H  0.52805788  0.73419965  0.09915637     0.35800
O2553       O  0.66140586  0.77286333  0.96602342    -0.72600
O2554       O  0.63711387  0.69289742  0.53362149    -0.73600
O2555       O  0.63850660  0.69496060  0.96637053    -0.62200
O2556       O  0.66160763  0.77029287  0.53424817    -0.70600
O2557       O  0.59985050  0.79097786  0.53405391    -0.70200
O2558       O  0.57736732  0.71766531  0.96383874    -0.61400
O2559       O  0.57534991  0.71362299  0.53175039    -0.73900
O2560       O  0.60022278  0.79522199  0.96640083    -0.72700
Cu2561     Cu  0.65176719  0.73208781  0.50009955     1.04600
Cu2562     Cu  0.58608261  0.75502993  0.99899490     1.04300
C2563       C  0.63346688  0.79368038  0.95352482     0.93600
C2564       C  0.60314518  0.69409014  0.54541859     0.92700
C2565       C  0.60567008  0.69780162  0.95227705     0.84900
C2566       C  0.63356044  0.78906750  0.54700899     0.91100
O2567       O  0.73223351  0.55126472  0.53336909    -0.72600
O2568       O  0.71605165  0.97838961  0.96095155    -0.73600
O2569       O  0.70842853  0.97382715  0.52866404    -0.62200
O2570       O  0.73867891  0.55686346  0.96615675    -0.70600
O2571       O  0.55026782  0.53630600  0.96960615    -0.70200
O2572       O  0.52016832  0.95354378  0.53349396    -0.61400
O2573       O  0.52760885  0.95801175  0.96646815    -0.73900
O2574       O  0.54405329  0.53086596  0.53660395    -0.72700
Cu2575     Cu  0.72170085  0.51580328  0.49707821     1.04600
Cu2576     Cu  0.53756147  0.49398420  0.50161638     1.04300
C2577       C  0.76485817  0.54911233  0.54805096     0.93600
C2578       C  0.74569660  0.95905866  0.95094951     0.92700
C2579       C  0.73521851  0.95405381  0.54338800     0.84900
C2580       C  0.77337379  0.55717448  0.95587016     0.91100
C2581       C  0.71004676  0.62362294  0.75113820     0.30300
C2582       C  0.53974570  0.62362006  0.75022940     0.30300
C2583       C  0.72984221  0.60333118  0.72288101    -0.05900
C2584       C  0.72890244  0.66500264  0.75037405    -0.06600
C2585       C  0.73147404  0.60270402  0.77971453    -0.06500
C2586       C  0.52036407  0.60313270  0.72322563    -0.05900
C2587       C  0.51930916  0.66467488  0.74991888    -0.06600
C2588       C  0.52195214  0.60207413  0.77799084    -0.06500
C2589       C  0.53338408  0.58844190  0.69571678    -0.31900
N2590       N  0.75230556  0.58208568  0.67733332     0.14600
C2591       C  0.71934561  0.58958361  0.69374821    -0.31900
H2592       H  0.69019934  0.58719979  0.68450474     0.16500
C2593       C  0.53114227  0.70355018  0.74964603    -0.30900
N2594       N  0.74911578  0.72777041  0.75009335     0.13300
C2595       C  0.71695597  0.70462113  0.75048267    -0.30900
C2596       C  0.53730451  0.58979754  0.80612115    -0.31200
N2597       N  0.75831381  0.58664911  0.82673662     0.13800
H2598       H  0.56788383  0.58805259  0.81222111     0.16400
C2599       C  0.72387631  0.59345072  0.81097216    -0.31200
H2600       H  0.69570374  0.59387384  0.82188086     0.16400
H2601       H  0.68716444  0.71552599  0.75100111     0.16400
H2602       H  0.56328760  0.58583591  0.68829272     0.16500
H2603       H  0.56086854  0.71333786  0.74934250     0.16500
C2604       C  0.53888290  0.87379261  0.74757913     0.30300
C2605       C  0.70915882  0.87431479  0.74869351     0.30300
C2606       C  0.51762672  0.89391878  0.71889151    -0.05900
C2607       C  0.51982870  0.83256807  0.74911241    -0.06600
C2608       C  0.51938179  0.89491690  0.77528005    -0.06500
C2609       C  0.72712863  0.89457750  0.72017500    -0.05900
C2610       C  0.72938507  0.83308964  0.74969914    -0.06600
C2611       C  0.72903936  0.89548599  0.77545809    -0.06500
C2612       C  0.71267255  0.90856026  0.69194597    -0.31900
N2613       N  0.74269346  0.91360157  0.67244372     0.14600
C2614       C  0.52647723  0.90606047  0.68865367    -0.31900
H2615       H  0.55506703  0.90775724  0.67878368     0.16500
C2616       C  0.71746606  0.79422116  0.75049171    -0.30900
N2617       N  0.74946475  0.76990614  0.75026368     0.13300
C2618       C  0.53167457  0.79295861  0.74948119    -0.30100
C2619       C  0.71723639  0.91099803  0.80320500    -0.31200
N2620       N  0.74906826  0.91799583  0.82116447     0.13800
H2621       H  0.68734242  0.91474758  0.81024036     0.16400
C2622       C  0.53099188  0.90864451  0.80385509    -0.31200
H2623       H  0.56071600  0.90835442  0.81195266     0.16400
H2624       H  0.56144361  0.78200190  0.74885855     0.16400
H2625       H  0.68238089  0.91175486  0.68503917     0.16500
H2626       H  0.68771787  0.78450040  0.75083198     0.16500
C2627       C  0.58442703  0.87361269  0.74783708     0.30300
C2628       C  0.66420050  0.87373226  0.74865995     0.30300
C2629       C  0.60485199  0.85332295  0.72016558    -0.05900
C2630       C  0.60342918  0.91514176  0.74767109    -0.06600
C2631       C  0.60488577  0.85245285  0.77642872    -0.06500
C2632       C  0.64532429  0.85320554  0.72108803    -0.05900
C2633       C  0.64389402  0.91473256  0.74804421    -0.06600
C2634       C  0.64540503  0.85268296  0.77640066    -0.06500
C2635       C  0.65862751  0.83732844  0.69391175    -0.31900
N2636       N  0.62772632  0.83001767  0.67545775     0.14600
C2637       C  0.59467517  0.83789940  0.69165261    -0.31900
H2638       H  0.56553630  0.83400914  0.68298696     0.16500
C2639       C  0.65596737  0.95346103  0.74894795    -0.30900
N2640       N  0.62408873  0.97784654  0.74929095     0.13300
C2641       C  0.59175313  0.95487336  0.74848266    -0.30900
C2642       C  0.65866245  0.83797668  0.80473117    -0.31200
N2643       N  0.62768144  0.82963813  0.82268900     0.13800
H2644       H  0.68860154  0.83668425  0.81276667     0.16400
C2645       C  0.59465621  0.83757299  0.80558967    -0.31200
H2646       H  0.56547988  0.83501445  0.81449823     0.16400
H2647       H  0.56200646  0.96593908  0.74884246     0.16400
H2648       H  0.68861533  0.83412741  0.68684708     0.16500
H2649       H  0.68575555  0.96303256  0.74967662     0.16500
C2650       C  0.58469032  0.62423254  0.75037372     0.30300
C2651       C  0.66446199  0.62401532  0.75085163     0.30300
C2652       C  0.60362775  0.64527993  0.77741770    -0.05900
C2653       C  0.60498764  0.58313358  0.75125915    -0.06600
C2654       C  0.60316053  0.64511944  0.72270740    -0.06500
C2655       C  0.64410786  0.64483108  0.77852357    -0.05900
C2656       C  0.64542676  0.58262732  0.75153337    -0.06600
C2657       C  0.64369042  0.64468397  0.72197027    -0.06500
C2658       C  0.65383674  0.66034886  0.80721003    -0.31900
N2659       N  0.62048350  0.66958052  0.82262145     0.14600
C2660       C  0.58994471  0.66199789  0.80398743    -0.31900
H2661       H  0.55982635  0.66495628  0.81079625     0.16500
C2662       C  0.65709324  0.54289800  0.75112302    -0.30900
N2663       N  0.62474788  0.51993575  0.75063317     0.13300
C2664       C  0.59288792  0.54436799  0.75078583    -0.30900
C2665       C  0.65276505  0.65760470  0.69191938    -0.31200
N2666       N  0.61904586  0.66539591  0.67563590     0.13800
H2667       H  0.68137080  0.65916377  0.68203970     0.16400
C2668       C  0.58891327  0.65970576  0.69480920    -0.31200
H2669       H  0.55865727  0.66222805  0.68768075     0.16400
H2670       H  0.56309610  0.53480092  0.75012716     0.16400
H2671       H  0.68275959  0.66320675  0.81675354     0.16500
H2672       H  0.68683818  0.53183332  0.75070778     0.16500
C2673       C  0.53010156  0.94758992  0.90192953    -0.26000
C2674       C  0.74587613  0.94309229  0.91901090    -0.14100
C2675       C  0.71247582  0.92952472  0.90375801     0.36600
C2676       C  0.71439555  0.92044096  0.87184366    -0.25400
C2677       C  0.74831384  0.92726838  0.85414456    -0.14700
C2678       C  0.53117825  0.94235892  0.86966367     0.37700
N2679       N  0.56505746  0.95413119  0.85273335    -0.88900
H2680       H  0.55589188  0.95771515  0.91351323     0.18800
H2681       H  0.68901452  0.90806887  0.86102654     0.18800
N2682       N  0.67688353  0.92494792  0.92059002    -0.87900
H2683       H  0.58643537  0.96483836  0.86769217     0.36100
H2684       H  0.55671094  0.97774146  0.83759719     0.41200
H2685       H  0.68152330  0.90225701  0.93744979     0.40900
H2686       H  0.65481402  0.91560385  0.90569503     0.35800
C2687       C  0.71739287  0.95560506  0.62934274    -0.26000
C2688       C  0.73764940  0.92110234  0.63949280    -0.14100
C2689       C  0.49858361  0.89262954  0.61729445     0.36600
C2690       C  0.49522552  0.90225021  0.58537990    -0.25400
C2691       C  0.72783588  0.93840635  0.57516728    -0.14700
C2692       C  0.71159713  0.96427377  0.59741135     0.37700
N2693       N  0.69214867  0.00085534  0.58759993    -0.88900
H2694       H  0.70687084  0.97623232  0.64651708     0.18800
H2695       H  0.50685056  0.88178785  0.56851604     0.18800
N2696       N  0.51172048  0.85340184  0.62646732    -0.87900
H2697       H  0.68440253  0.01760462  0.60689386     0.36100
H2698       H  0.66613463  0.99344614  0.57655292     0.41200
H2699       H  0.49042398  0.84052732  0.64045758     0.40900
H2700       H  0.53692499  0.85571355  0.63977652     0.35800
C2701       C  0.54767995  0.56161756  0.87164092    -0.26000
C2702       C  0.76572095  0.58447317  0.85997195    -0.14100
C2703       C  0.74565532  0.60927725  0.88067326     0.36600
C2704       C  0.75145575  0.60344011  0.91299391    -0.25400
C2705       C  0.77977046  0.57609166  0.92481239    -0.14700
C2706       C  0.55620600  0.55885187  0.90372995     0.37700
N2707       N  0.59155878  0.53907696  0.91458148    -0.88900
H2708       H  0.56606225  0.54564492  0.85565997     0.18800
H2709       H  0.73276653  0.61909374  0.92901330     0.18800
N2710       N  0.72067933  0.64101577  0.86886962    -0.87900
H2711       H  0.60905001  0.53145830  0.89573737     0.36100
H2712       H  0.58471951  0.51236588  0.92577317     0.41200
H2713       H  0.73789927  0.66040455  0.85581896     0.40900
H2714       H  0.70981847  0.65762061  0.88727716     0.35800
C2715       C  0.74816056  0.59660707  0.59001237    -0.26000
C2716       C  0.76695563  0.56153097  0.58074176    -0.14100
C2717       C  0.53327409  0.53506478  0.60374467     0.36600
C2718       C  0.52628707  0.54159970  0.63527789    -0.25400
C2719       C  0.75579439  0.57554764  0.64456612    -0.14700
C2720       C  0.74504687  0.60523932  0.62176969     0.37700
N2721       N  0.73488864  0.64531665  0.62983184    -0.88900
H2722       H  0.73729751  0.61802049  0.57251294     0.18800
H2723       H  0.53741206  0.52032744  0.65278859     0.18800
N2724       N  0.55618776  0.50096703  0.59522376    -0.87900
H2725       H  0.45627338  0.65153941  0.62270143     0.36100
H2726       H  0.48711821  0.64945988  0.65379933     0.41200
H2727       H  0.79379499  0.47550928  0.60495840     0.40900
H2728       H  0.83387105  0.50345034  0.60524755     0.35800
C2729       C  0.66105276  0.78835735  0.90080299    -0.26000
C2730       C  0.63715848  0.80970982  0.92121320    -0.14100
C2731       C  0.61090864  0.83893270  0.90863857     0.36600
C2732       C  0.60779420  0.84493130  0.87612076    -0.25400
C2733       C  0.63039025  0.82211855  0.85583376    -0.14700
C2734       C  0.65763802  0.79406744  0.86839552     0.37700
N2735       N  0.68066186  0.77001594  0.84819059    -0.88900
H2736       H  0.68061179  0.76498207  0.90982006     0.18800
H2737       H  0.58768301  0.86749489  0.86665694     0.18800
N2738       N  0.58704497  0.86219168  0.92878634    -0.87900
H2739       H  0.67492166  0.74013317  0.85319558     0.36100
H2740       H  0.70998194  0.77459295  0.85338882     0.41200
H2741       H  0.55793585  0.85794999  0.92266404     0.40900
H2742       H  0.59306783  0.89217716  0.92467366     0.35800
C2743       C  0.61788040  0.83799928  0.58791983    -0.26000
C2744       C  0.63823527  0.80356390  0.57912555    -0.14100
C2745       C  0.65782152  0.77973319  0.60242914     0.36600
C2746       C  0.65304911  0.78869331  0.63399797    -0.25400
C2747       C  0.63107504  0.82197161  0.64279132    -0.14700
C2748       C  0.61647618  0.84892283  0.61927864     0.37700
N2749       N  0.60189423  0.88807839  0.62618173    -0.88900
H2750       H  0.60388492  0.85712386  0.57019790     0.18800
H2751       H  0.66632877  0.76950841  0.65201631     0.18800
N2752       N  0.68162398  0.74595401  0.59423427    -0.87900
H2753       H  0.61775491  0.90850929  0.61295276     0.36100
H2754       H  0.60824374  0.89477298  0.64926987     0.41200
H2755       H  0.66339179  0.72453446  0.58537451     0.40900
H2756       H  0.69505384  0.73287257  0.61409060     0.35800
C2757       C  0.63058492  0.64732204  0.87710708    -0.26000
C2758       C  0.61604124  0.67593699  0.85536689    -0.14100
C2759       C  0.59252087  0.70766983  0.86560208     0.36600
C2760       C  0.58616082  0.71172313  0.89764929    -0.25400
C2761       C  0.60326420  0.68484841  0.91970825    -0.14700
C2762       C  0.62513694  0.65187045  0.90932257     0.37700
N2763       N  0.64232288  0.62374538  0.93152529    -0.88900
H2764       H  0.64620133  0.62143083  0.86880113     0.18800
H2765       H  0.56989656  0.73750384  0.90550169     0.18800
N2766       N  0.57550793  0.73574687  0.84326302    -0.87900
H2767       H  0.65744903  0.60121401  0.92004860     0.36100
H2768       H  0.61967194  0.61014674  0.94353546     0.41200
H2769       H  0.59814159  0.74960847  0.83145848     0.40900
H2770       H  0.55985980  0.75808011  0.85454957     0.35800
C2771       C  0.62117561  0.64748972  0.58951409    -0.26000
C2772       C  0.59855277  0.68000448  0.57800898    -0.14100
C2773       C  0.58027147  0.70553568  0.59940139     0.36600
C2774       C  0.58854569  0.70085791  0.63128718    -0.25400
C2775       C  0.61354053  0.67031144  0.64255317    -0.14700
C2776       C  0.62736561  0.64145072  0.62182292     0.37700
N2777       N  0.64714627  0.60608824  0.63369681    -0.88900
H2778       H  0.63481220  0.62748522  0.57326295     0.18800
H2779       H  0.57573933  0.72152645  0.64746224     0.18800
N2780       N  0.55520071  0.73785617  0.58881906    -0.87900
H2781       H  0.65536067  0.58786749  0.61537600     0.36100
H2782       H  0.62728196  0.59005964  0.64705436     0.41200
H2783       H  0.56660201  0.76435838  0.59680339     0.40900
H2784       H  0.52805776  0.73419948  0.59915646     0.35800
O2785       O  0.91140633  0.27286145  0.46602274    -0.72600
O2786       O  0.88711409  0.19289727  0.03362205    -0.73600
O2787       O  0.88850642  0.19495907  0.46637132    -0.62200
O2788       O  0.91160868  0.27029264  0.03424746    -0.70600
O2789       O  0.84985190  0.29097875  0.03405317    -0.70200
O2790       O  0.82736738  0.21766444  0.46383938    -0.61400
O2791       O  0.82535049  0.21362404  0.03175122    -0.73900
O2792       O  0.85022359  0.29522112  0.46640009    -0.72700
Cu2793     Cu  0.90176761  0.23208688  0.00009955     1.04600
Cu2794     Cu  0.83608325  0.25503001  0.49899489     1.04300
C2795       C  0.88346767  0.29367893  0.45352409     0.93600
C2796       C  0.85314554  0.19409077  0.04541935     0.92700
C2797       C  0.85566997  0.19780029  0.45227784     0.84900
C2798       C  0.88356191  0.28906808  0.04700811     0.91100
O2799       O  0.98223443  0.05126612  0.03336942    -0.72600
O2800       O  0.96605273  0.47838830  0.46095079    -0.73600
O2801       O  0.95842865  0.47382539  0.02866310    -0.62200
O2802       O  0.98867915  0.05686455  0.46615708    -0.70600
O2803       O  0.80026786  0.03630627  0.46960635    -0.70200
O2804       O  0.77016884  0.45354292  0.03349342    -0.61400
O2805       O  0.77761024  0.45801122  0.46646770    -0.73900
O2806       O  0.79405392  0.03086634  0.03660424    -0.72700
Cu2807     Cu  0.97170084  0.01580463  0.99707874     1.04600
Cu2808     Cu  0.78756115  0.99398463  0.00161677     1.04300
C2809       C  0.01485915  0.04911346  0.04805120     0.93600
C2810       C  0.99569803  0.45905778  0.45094890     0.92700
C2811       C  0.98521879  0.45405254  0.04338725     0.84900
C2812       C  0.02337400  0.05717507  0.45587040     0.91100
C2813       C  0.96004743  0.12362308  0.25113869     0.30300
C2814       C  0.78974640  0.12362020  0.25023009     0.30300
C2815       C  0.97984295  0.10333166  0.22288140    -0.05900
C2816       C  0.97890312  0.16500282  0.25037484    -0.06600
C2817       C  0.98147464  0.10270386  0.27971489    -0.06500
C2818       C  0.77036482  0.10313306  0.22322621    -0.05900
C2819       C  0.76930988  0.16467501  0.24991976    -0.06600
C2820       C  0.77195278  0.10207406  0.27799136    -0.06500
C2821       C  0.78338495  0.08844252  0.19571734    -0.31900
N2822       N  0.00230650  0.08208683  0.17733358     0.14600
C2823       C  0.96934648  0.08958455  0.19374843    -0.31900
H2824       H  0.94020026  0.08720082  0.18450484     0.16500
C2825       C  0.78114302  0.20355031  0.24964689    -0.30900
N2826       N  0.99911649  0.22777061  0.25009404     0.13300
C2827       C  0.96695667  0.20462135  0.25048333    -0.30900
C2828       C  0.78730513  0.08979721  0.30612157    -0.31200
N2829       N  0.00831424  0.08664829  0.32673685     0.13800
H2830       H  0.81788445  0.08805235  0.31222156     0.16400
C2831       C  0.97387678  0.09345008  0.31097239    -0.31200
H2832       H  0.94570420  0.09387320  0.32188108     0.16400
H2833       H  0.93716514  0.21552625  0.25100154     0.16400
H2834       H  0.81328854  0.08583639  0.18829346     0.16500
H2835       H  0.81086930  0.21333800  0.24934330     0.16500
C2836       C  0.78888414  0.37379256  0.24757845     0.30300
C2837       C  0.95916007  0.37431534  0.24869294     0.30300
C2838       C  0.76762801  0.39391886  0.21889085    -0.05900
C2839       C  0.76982971  0.33256818  0.24911185    -0.06600
C2840       C  0.76938324  0.39491706  0.27527938    -0.06500
C2841       C  0.97712995  0.39457791  0.22017439    -0.05900
C2842       C  0.97938612  0.33309001  0.24969865    -0.06600
C2843       C  0.97904078  0.39548657  0.27545745    -0.06500
C2844       C  0.96267390  0.40856138  0.19194555    -0.31900
N2845       N  0.99269479  0.41360266  0.17244325     0.14600
C2846       C  0.77647855  0.40606108  0.18865314    -0.31900
H2847       H  0.80506834  0.40775773  0.17878311     0.16500
C2848       C  0.96746695  0.29422153  0.25049166    -0.30900
N2849       N  0.99946556  0.26990636  0.25026389     0.13300
C2850       C  0.78167541  0.29295867  0.24948112    -0.30100
C2851       C  0.96723802  0.41099883  0.30320433    -0.31200
N2852       N  0.99907001  0.41799618  0.32116381     0.13800
H2853       H  0.93734410  0.41474875  0.31023975     0.16400
C2854       C  0.78099355  0.40864454  0.30385441    -0.31200
H2855       H  0.81071766  0.40835427  0.31195201     0.16400
H2856       H  0.81144442  0.28200183  0.24885868     0.16400
H2857       H  0.93238221  0.41175628  0.18503886     0.16500
H2858       H  0.93771874  0.28450084  0.25083215     0.16500
C2859       C  0.83442827  0.37361251  0.24783638     0.30300
C2860       C  0.91420175  0.37373272  0.24865932     0.30300
C2861       C  0.85485341  0.35332287  0.22016488    -0.05900
C2862       C  0.85343012  0.41514167  0.24767023    -0.06600
C2863       C  0.85488716  0.35245297  0.27642814    -0.06500
C2864       C  0.89532574  0.35320579  0.22108739    -0.05900
C2865       C  0.89389495  0.41473284  0.24804340    -0.06600
C2866       C  0.89540640  0.35268345  0.27640009    -0.06500
C2867       C  0.90862915  0.33732958  0.19391083    -0.31900
N2868       N  0.87772808  0.33001910  0.17545661     0.14600
C2869       C  0.84467680  0.33790006  0.19165157    -0.31900
H2870       H  0.81553798  0.33400959  0.18298592     0.16500
C2871       C  0.90596790  0.45346145  0.24894682    -0.30900
N2872       N  0.87408896  0.47784661  0.24928960     0.13300
C2873       C  0.84175361  0.45487312  0.24848143    -0.30900
C2874       C  0.90866401  0.33797733  0.30473061    -0.31200
N2875       N  0.87768312  0.32963847  0.32268846     0.13800
H2876       H  0.93860312  0.33668504  0.31276606     0.16400
C2877       C  0.84465779  0.33757303  0.30558915    -0.31200
H2878       H  0.81548151  0.33501419  0.31449776     0.16400
H2879       H  0.81200683  0.46593853  0.24884114     0.16400
H2880       H  0.93861701  0.33412890  0.18684615     0.16500
H2881       H  0.93575599  0.46303328  0.24967547     0.16500
C2882       C  0.83469103  0.12423264  0.25037442     0.30300
C2883       C  0.91446269  0.12401530  0.25085220     0.30300
C2884       C  0.85362857  0.14527994  0.27741839    -0.05900
C2885       C  0.85498826  0.08313366  0.25125985    -0.06600
C2886       C  0.85316121  0.14511951  0.22270806    -0.06500
C2887       C  0.89410868  0.14483108  0.27852418    -0.05900
C2888       C  0.89542738  0.08262724  0.25153405    -0.06600
C2889       C  0.89369108  0.14468397  0.22197086    -0.06500
C2890       C  0.90383768  0.16034857  0.30721073    -0.31900
N2891       N  0.87048448  0.16957998  0.32262228     0.14600
C2892       C  0.83994564  0.16199752  0.30398827    -0.31900
H2893       H  0.80982730  0.16495574  0.31079718     0.16500
C2894       C  0.90709365  0.04289776  0.25112413    -0.30900
N2895       N  0.87474813  0.01993566  0.25063450     0.13300
C2896       C  0.84288834  0.04436813  0.25078693    -0.30900
C2897       C  0.90276566  0.15760491  0.19192001    -0.31200
N2898       N  0.86904645  0.16539620  0.17563660     0.13800
H2899       H  0.93137138  0.15916419  0.18204032     0.16400
C2900       C  0.83891389  0.15970604  0.19480993    -0.31200
H2901       H  0.80865787  0.16222855  0.18768155     0.16400
H2902       H  0.81309646  0.03480124  0.25012836     0.16400
H2903       H  0.93276055  0.16320646  0.31675417     0.16500
H2904       H  0.93683855  0.03183289  0.25070907     0.16500
C2905       C  0.78010345  0.44758960  0.40192899    -0.26000
C2906       C  0.99587795  0.44309152  0.41901033    -0.14100
C2907       C  0.96247769  0.42952405  0.40375734     0.36600
C2908       C  0.96439750  0.42044055  0.37184299    -0.25400
C2909       C  0.99831570  0.42726836  0.35414395    -0.14700
C2910       C  0.78118013  0.44235888  0.36966307     0.37700
N2911       N  0.81505929  0.45413131  0.35273274    -0.88900
H2912       H  0.80589376  0.45771469  0.41351278     0.18800
H2913       H  0.93901656  0.40806832  0.36102584     0.18800
N2914       N  0.92688536  0.42494707  0.42058926    -0.87900
H2915       H  0.83643724  0.46483838  0.36769159     0.36100
H2916       H  0.80671272  0.47774168  0.33759671     0.41200
H2917       H  0.93152506  0.40225590  0.43744882     0.40900
H2918       H  0.90481586  0.41560329  0.40569413     0.35800
C2919       C  0.96739309  0.45560499  0.12934188    -0.26000
C2920       C  0.98765059  0.42110295  0.13949225    -0.14100
C2921       C  0.74858541  0.39263000  0.11729420     0.36600
C2922       C  0.74522693  0.40224994  0.08537959    -0.25400
C2923       C  0.97783621  0.43840541  0.07516658    -0.14700
C2924       C  0.96159698  0.46427291  0.09741040     0.37700
N2925       N  0.94214776  0.50085393  0.08759856    -0.88900
H2926       H  0.95687062  0.47623234  0.14651600     0.18800
H2927       H  0.75685238  0.38178752  0.06851593     0.18800
N2928       N  0.76172316  0.35340272  0.12646737    -0.87900
H2929       H  0.93440146  0.51760351  0.10689230     0.36100
H2930       H  0.91613381  0.49344401  0.07655177     0.41200
H2931       H  0.74042720  0.34052807  0.14045810     0.40900
H2932       H  0.78692792  0.35571525  0.13977607     0.35800
C2933       C  0.79768035  0.06161717  0.37164131    -0.26000
C2934       C  0.01572132  0.08447266  0.35997216    -0.14100
C2935       C  0.99565592  0.10927725  0.38067324     0.36600
C2936       C  0.00145631  0.10344052  0.41299393    -0.25400
C2937       C  0.02977081  0.07609197  0.42481257    -0.14700
C2938       C  0.80620641  0.05885189  0.40373032     0.37700
N2939       N  0.84155914  0.03907699  0.41458198    -0.88900
H2940       H  0.81606263  0.04564436  0.35566043     0.18800
H2941       H  0.98276722  0.11909455  0.42901319     0.18800
N2942       N  0.97068028  0.14101590  0.36886935    -0.87900
H2943       H  0.85905049  0.03145840  0.39573792     0.36100
H2944       H  0.83471979  0.01236583  0.42577353     0.41200
H2945       H  0.98790042  0.16040424  0.35581842     0.40900
H2946       H  0.95981973  0.15762121  0.38727672     0.35800
C2947       C  0.99816146  0.09660822  0.09001260    -0.26000
C2948       C  0.01695683  0.06153226  0.08074198    -0.14100
C2949       C  0.78327555  0.03506608  0.10374496     0.36600
C2950       C  0.77628873  0.04160119  0.13527817    -0.25400
C2951       C  0.00579555  0.07554897  0.14456636    -0.14700
C2952       C  0.99504746  0.10524041  0.12176991     0.37700
N2953       N  0.98488794  0.14531744  0.12983202    -0.88900
H2954       H  0.98729812  0.11802147  0.07251316     0.18800
H2955       H  0.78741395  0.02032906  0.15278887     0.18800
N2956       N  0.80618886  0.00096804  0.09522407    -0.87900
H2957       H  0.70627253  0.15153906  0.12270189     0.36100
H2958       H  0.73711787  0.14946081  0.15379949     0.41200
H2959       H  0.04379569  0.97551052  0.10495868     0.40900
H2960       H  0.08387208  0.00345113  0.10524779     0.35800
C2961       C  0.91105340  0.28835574  0.40080217    -0.26000
C2962       C  0.88715969  0.30970860  0.42121256    -0.14100
C2963       C  0.86091087  0.33893258  0.40863816     0.36600
C2964       C  0.85779675  0.34493183  0.37612039    -0.25400
C2965       C  0.88039204  0.32211862  0.35583320    -0.14700
C2966       C  0.90763902  0.29406659  0.36839473     0.37700
N2967       N  0.93066251  0.27001507  0.34818957    -0.88900
H2968       H  0.93061168  0.26497971  0.40981905     0.18800
H2969       H  0.83768630  0.36749619  0.36665670     0.18800
N2970       N  0.83704776  0.36219190  0.42878610    -0.87900
H2971       H  0.92492166  0.24013235  0.35319408     0.36100
H2972       H  0.95998267  0.27459134  0.35338806     0.41200
H2973       H  0.80793855  0.35795113  0.42266361     0.40900
H2974       H  0.84307142  0.39217725  0.42467376     0.35800
C2975       C  0.86788264  0.33800058  0.08791858    -0.26000
C2976       C  0.88823724  0.30356495  0.07912446    -0.14100
C2977       C  0.90782347  0.27973434  0.10242812     0.36600
C2978       C  0.90305111  0.28869476  0.13399690    -0.25400
C2979       C  0.88107703  0.32197312  0.14279015    -0.14700
C2980       C  0.86647835  0.34892430  0.11927737     0.37700
N2981       N  0.85189638  0.38807989  0.12618032    -0.88900
H2982       H  0.85388727  0.35712509  0.07019656     0.18800
H2983       H  0.91633061  0.26950988  0.15201530     0.18800
N2984       N  0.93162562  0.24595482  0.09423341    -0.87900
H2985       H  0.86775758  0.40851077  0.11295175     0.36100
H2986       H  0.85824494  0.39477431  0.14926865     0.41200
H2987       H  0.91339317  0.22453524  0.08537403     0.40900
H2988       H  0.94505565  0.23287359  0.11408976     0.35800
C2989       C  0.88058627  0.14732158  0.37710788    -0.26000
C2990       C  0.86604222  0.17593636  0.35536772    -0.14100
C2991       C  0.84252125  0.20766872  0.36560292     0.36600
C2992       C  0.83616079  0.21172166  0.39765010    -0.25400
C2993       C  0.85326431  0.18484705  0.41970905    -0.14700
C2994       C  0.87513790  0.15186965  0.40932336     0.37700
N2995       N  0.89232438  0.12374486  0.43152603    -0.88900
H2996       H  0.89620319  0.12143071  0.36880192     0.18800
H2997       H  0.81989611  0.23750209  0.40550250     0.18800
N2998       N  0.82550806  0.23574566  0.34326390    -0.87900
H2999       H  0.90745104  0.10121386  0.42004933     0.36100
H3000       H  0.86967372  0.11014568  0.44353618     0.41200
H3001       H  0.84814160  0.24960786  0.33145963     0.40900
H3002       H  0.80985934  0.25807845  0.35455044     0.35800
C3003       C  0.87117497  0.14748987  0.08951483    -0.26000
C3004       C  0.84855319  0.18000546  0.07800981    -0.14100
C3005       C  0.83027306  0.20553741  0.09940227     0.36600
C3006       C  0.83854731  0.20085930  0.13128802    -0.25400
C3007       C  0.86354108  0.17031188  0.14255391    -0.14700
C3008       C  0.87736497  0.14145063  0.12182362     0.37700
N3009       N  0.89714459  0.10608749  0.13369745    -0.88900
H3010       H  0.88481071  0.12748490  0.07326362     0.18800
H3011       H  0.82574179  0.22152825  0.14746316     0.18800
N3012       N  0.80520337  0.23785881  0.08882003    -0.87900
H3013       H  0.90535829  0.08786647  0.11537661     0.36100
H3014       H  0.87727984  0.09005958  0.14705508     0.41200
H3015       H  0.81660555  0.26436058  0.09680436     0.40900
H3016       H  0.77806031  0.23420307  0.09915750     0.35800
O3017       O  0.91140634  0.27286148  0.96602275    -0.72600
O3018       O  0.88711412  0.19289734  0.53362198    -0.73600
O3019       O  0.88850644  0.19495906  0.96637130    -0.62200
O3020       O  0.91160871  0.27029269  0.53424747    -0.70600
O3021       O  0.84985193  0.29097883  0.53405317    -0.70200
O3022       O  0.82736740  0.21766445  0.96383938    -0.61400
O3023       O  0.82535053  0.21362416  0.53175125    -0.73900
O3024       O  0.85022361  0.29522114  0.96640015    -0.72700
Cu3025     Cu  0.90176761  0.23208692  0.50009954     1.04600
Cu3026     Cu  0.83608326  0.25502995  0.99899489     1.04300
C3027       C  0.88346767  0.29367894  0.95352411     0.93600
C3028       C  0.85314561  0.19409088  0.54541934     0.92700
C3029       C  0.85566998  0.19780032  0.95227782     0.84900
C3030       C  0.88356194  0.28906813  0.54700812     0.91100
O3031       O  0.98223433  0.05126605  0.53336947    -0.72600
O3032       O  0.96605279  0.47838824  0.96095081    -0.73600
O3033       O  0.95842866  0.47382551  0.52866310    -0.62200
O3034       O  0.98867924  0.05686451  0.96615703    -0.70600
O3035       O  0.80026790  0.03630633  0.96960642    -0.70200
O3036       O  0.77016884  0.45354295  0.53349334    -0.61400
O3037       O  0.77761011  0.45801103  0.96646776    -0.73900
O3038       O  0.79405388  0.03086643  0.53660419    -0.72700
Cu3039     Cu  0.97170080  0.01580457  0.49707877     1.04600
Cu3040     Cu  0.78756115  0.99398461  0.50161673     1.04300
C3041       C  0.01485905  0.04911338  0.54805123     0.93600
C3042       C  0.99569807  0.45905770  0.95094892     0.92700
C3043       C  0.98521882  0.45405265  0.54338723     0.84900
C3044       C  0.02337411  0.05717509  0.95587039     0.91100
C3045       C  0.96004749  0.12362307  0.75113873     0.30300
C3046       C  0.78974643  0.12362021  0.75023009     0.30300
C3047       C  0.97984300  0.10333171  0.72288141    -0.05900
C3048       C  0.97890317  0.16500283  0.75037497    -0.06600
C3049       C  0.98147470  0.10270379  0.77971489    -0.06500
C3050       C  0.77036483  0.10313305  0.72322622    -0.05900
C3051       C  0.76930989  0.16467504  0.74991977    -0.06600
C3052       C  0.77195281  0.10207403  0.77799135    -0.06500
C3053       C  0.78338495  0.08844239  0.69571739    -0.31900
N3054       N  0.00230649  0.08208688  0.67733357     0.14600
C3055       C  0.96934650  0.08958461  0.69374846    -0.31900
H3056       H  0.94020027  0.08720085  0.68450491     0.16500
C3057       C  0.78114301  0.20355037  0.74964691    -0.30900
N3058       N  0.99911651  0.22777065  0.75009422     0.13300
C3059       C  0.96695671  0.20462136  0.75048356    -0.30900
C3060       C  0.78730516  0.08979707  0.80612154    -0.31200
N3061       N  0.00831426  0.08664814  0.82673682     0.13800
H3062       H  0.81788449  0.08805220  0.81222154     0.16400
C3063       C  0.97387681  0.09344994  0.81097237    -0.31200
H3064       H  0.94570422  0.09387303  0.82188105     0.16400
H3065       H  0.93716519  0.21552627  0.75100174     0.16400
H3066       H  0.81328854  0.08583623  0.68829353     0.16500
H3067       H  0.81086927  0.21333808  0.74934331     0.16500
C3068       C  0.78888409  0.37379265  0.74757845     0.30300
C3069       C  0.95916001  0.37431539  0.74869293     0.30300
C3070       C  0.76762797  0.39391893  0.71889084    -0.05900
C3071       C  0.76982967  0.33256827  0.74911186    -0.06600
C3072       C  0.76938316  0.39491713  0.77527936    -0.06500
C3073       C  0.97712990  0.39457794  0.72017437    -0.05900
C3074       C  0.97938605  0.33309006  0.74969866    -0.06600
C3075       C  0.97904076  0.39548664  0.77545741    -0.06500
C3076       C  0.96267388  0.40856134  0.69194550    -0.31900
N3077       N  0.99269479  0.41360271  0.67244324     0.14600
C3078       C  0.77647856  0.40606118  0.68865315    -0.31900
H3079       H  0.80506839  0.40775786  0.67878318     0.16500
C3080       C  0.96746689  0.29422158  0.75049169    -0.30900
N3081       N  0.99946553  0.26990642  0.75026395     0.13300
C3082       C  0.78167537  0.29295877  0.74948117    -0.30100
C3083       C  0.96723802  0.41099882  0.80320431    -0.31200
N3084       N  0.99907000  0.41799620  0.82116379     0.13800
H3085       H  0.93734412  0.41474864  0.81023974     0.16400
C3086       C  0.78099345  0.40864454  0.80385441    -0.31200
H3087       H  0.81071757  0.40835418  0.81195203     0.16400
H3088       H  0.81144439  0.28200195  0.74885878     0.16400
H3089       H  0.93238221  0.41175615  0.68503875     0.16500
H3090       H  0.93771866  0.28450087  0.75083220     0.16500
C3091       C  0.83442822  0.37361258  0.74783637     0.30300
C3092       C  0.91420169  0.37373278  0.74865934     0.30300
C3093       C  0.85485337  0.35332290  0.72016488    -0.05900
C3094       C  0.85343005  0.41514174  0.74767020    -0.06600
C3095       C  0.85488709  0.35245307  0.77642815    -0.06500
C3096       C  0.89532569  0.35320582  0.72108742    -0.05900
C3097       C  0.89389488  0.41473290  0.74804340    -0.06600
C3098       C  0.89540635  0.35268353  0.77640012    -0.06500
C3099       C  0.90862913  0.33732948  0.69391091    -0.31900
N3100       N  0.87772808  0.33001902  0.67545666     0.14600
C3101       C  0.84467679  0.33790000  0.69165160    -0.31900
H3102       H  0.81553797  0.33400952  0.68298592     0.16500
C3103       C  0.90596782  0.45346149  0.74894684    -0.30900
N3104       N  0.87408890  0.47784667  0.74928958     0.13300
C3105       C  0.84175356  0.45487319  0.74848134    -0.30900
C3106       C  0.90866394  0.33797742  0.80473066    -0.31200
N3107       N  0.87768300  0.32963856  0.82268848     0.13800
H3108       H  0.93860305  0.33668510  0.81276614     0.16400
C3109       C  0.84465769  0.33757312  0.80558914    -0.31200
H3110       H  0.81548137  0.33501423  0.81449770     0.16400
H3111       H  0.81200679  0.46593865  0.74884098     0.16400
H3112       H  0.93861700  0.33412875  0.68684627     0.16500
H3113       H  0.93575591  0.46303330  0.74967552     0.16500
C3114       C  0.83469108  0.12423261  0.75037442     0.30300
C3115       C  0.91446275  0.12401526  0.75085223     0.30300
C3116       C  0.85362862  0.14527992  0.77741839    -0.05900
C3117       C  0.85498831  0.08313363  0.75125989    -0.06600
C3118       C  0.85316128  0.14511940  0.72270804    -0.06500
C3119       C  0.89410873  0.14483103  0.77852421    -0.05900
C3120       C  0.89542744  0.08262721  0.75153409    -0.06600
C3121       C  0.89369114  0.14468390  0.72197087    -0.06500
C3122       C  0.90383771  0.16034848  0.80721078    -0.31900
N3123       N  0.87048451  0.16957994  0.82262231     0.14600
C3124       C  0.83994568  0.16199747  0.80398829    -0.31900
H3125       H  0.80982735  0.16495566  0.81079722     0.16500
C3126       C  0.90709367  0.04289773  0.75112416    -0.30900
N3127       N  0.87474815  0.01993565  0.75063452     0.13300
C3128       C  0.84288837  0.04436813  0.75078696    -0.30900
C3129       C  0.90276572  0.15760498  0.69192006    -0.31200
N3130       N  0.86904652  0.16539626  0.67563662     0.13800
H3131       H  0.93137144  0.15916438  0.68204041     0.16400
C3132       C  0.83891397  0.15970596  0.69480992    -0.31200
H3133       H  0.80865796  0.16222843  0.68768152     0.16400
H3134       H  0.81309648  0.03480128  0.75012837     0.16400
H3135       H  0.93276058  0.16320633  0.81675423     0.16500
H3136       H  0.93683856  0.03183285  0.75070909     0.16500
C3137       C  0.78010335  0.44758959  0.90192899    -0.26000
C3138       C  0.99587799  0.44309150  0.91901033    -0.14100
C3139       C  0.96247773  0.42952402  0.90375735     0.36600
C3140       C  0.96439750  0.42044059  0.87184299    -0.25400
C3141       C  0.99831570  0.42726838  0.85414394    -0.14700
C3142       C  0.78118001  0.44235896  0.86966305     0.37700
N3143       N  0.81505914  0.45413137  0.85273271    -0.88900
H3144       H  0.80589365  0.45771463  0.91351280     0.18800
H3145       H  0.93901652  0.40806846  0.86102582     0.18800
N3146       N  0.92688539  0.42494713  0.92058928    -0.87900
H3147       H  0.83643712  0.46483840  0.86769158     0.36100
H3148       H  0.80671259  0.47774179  0.83759676     0.41200
H3149       H  0.93152502  0.40225600  0.93744888     0.40900
H3150       H  0.90481589  0.41560338  0.90569414     0.35800
C3151       C  0.96739314  0.45560507  0.62934188    -0.26000
C3152       C  0.98765064  0.42110303  0.63949225    -0.14100
C3153       C  0.74858541  0.39263010  0.61729420     0.36600
C3154       C  0.74522698  0.40225006  0.58537960    -0.25400
C3155       C  0.97783628  0.43840552  0.57516657    -0.14700
C3156       C  0.96159700  0.46427298  0.59741040     0.37700
N3157       N  0.94214757  0.50085386  0.58759855    -0.88900
H3158       H  0.95687063  0.47623241  0.64651600     0.18800
H3159       H  0.75685240  0.38178761  0.56851594     0.18800
N3160       N  0.76172294  0.35340276  0.62646737    -0.87900
H3161       H  0.93440118  0.51760340  0.60689231     0.36100
H3162       H  0.91613366  0.49344374  0.57655183     0.41200
H3163       H  0.74042695  0.34052824  0.64045809     0.40900
H3164       H  0.78692775  0.35571517  0.63977609     0.35800
C3165       C  0.79768037  0.06161711  0.87164131    -0.26000
C3166       C  0.01572135  0.08447256  0.85997214    -0.14100
C3167       C  0.99565595  0.10927716  0.88067323     0.36600
C3168       C  0.00145639  0.10344048  0.91299392    -0.25400
C3169       C  0.02977090  0.07609196  0.92481256    -0.14700
C3170       C  0.80620645  0.05885189  0.90373032     0.37700
N3171       N  0.84155920  0.03907706  0.91458199    -0.88900
H3172       H  0.81606262  0.04564424  0.85566046     0.18800
H3173       H  0.98276736  0.11909453  0.92901320     0.18800
N3174       N  0.97068027  0.14101576  0.86886935    -0.87900
H3175       H  0.85905061  0.03145853  0.89573794     0.36100
H3176       H  0.83471986  0.01236589  0.92577352     0.41200
H3177       H  0.98790041  0.16040410  0.85581843     0.40900
H3178       H  0.95981970  0.15762106  0.88727672     0.35800
C3179       C  0.99816130  0.09660812  0.59001260    -0.26000
C3180       C  0.01695674  0.06153221  0.58074200    -0.14100
C3181       C  0.78327537  0.03506591  0.60374499     0.36600
C3182       C  0.77628858  0.04160097  0.63527822    -0.25400
C3183       C  0.00579548  0.07554893  0.64456636    -0.14700
C3184       C  0.99504740  0.10524035  0.62176991     0.37700
N3185       N  0.98488798  0.14531739  0.62983200    -0.88900
H3186       H  0.98729784  0.11802132  0.57251317     0.18800
H3187       H  0.78741377  0.02032880  0.65278891     0.18800
N3188       N  0.80618872  0.00096795  0.59522408    -0.87900
H3189       H  0.70627254  0.15153887  0.62270208     0.36100
H3190       H  0.73711811  0.14946071  0.65379954     0.41200
H3191       H  0.04379536  0.97551045  0.60495872     0.40900
H3192       H  0.08387184  0.00345092  0.60524782     0.35800
C3193       C  0.91105330  0.28835562  0.90080213    -0.26000
C3194       C  0.88715963  0.30970853  0.92121254    -0.14100
C3195       C  0.86091080  0.33893257  0.90863817     0.36600
C3196       C  0.85779656  0.34493177  0.87612040    -0.25400
C3197       C  0.88039188  0.32211859  0.85583319    -0.14700
C3198       C  0.90763893  0.29406656  0.86839469     0.37700
N3199       N  0.93066252  0.27001517  0.84818949    -0.88900
H3200       H  0.93061162  0.26497959  0.90981901     0.18800
H3201       H  0.83768604  0.36749610  0.86665673     0.18800
N3202       N  0.83704780  0.36219197  0.92878614    -0.87900
H3203       H  0.92492169  0.24013239  0.85319387     0.36100
H3204       H  0.95998264  0.27459142  0.85338802     0.41200
H3205       H  0.80793856  0.35795121  0.92266374     0.40900
H3206       H  0.84307143  0.39217732  0.92467371     0.35800
C3207       C  0.86788266  0.33800066  0.58791860    -0.26000
C3208       C  0.88823726  0.30356503  0.57912447    -0.14100
C3209       C  0.90782355  0.27973448  0.60242815     0.36600
C3210       C  0.90305125  0.28869489  0.63399692    -0.25400
C3211       C  0.88107709  0.32197315  0.64279018    -0.14700
C3212       C  0.86647836  0.34892434  0.61927740     0.37700
N3213       N  0.85189631  0.38807989  0.62618037    -0.88900
H3214       H  0.85388725  0.35712519  0.57019660     0.18800
H3215       H  0.91633085  0.26951006  0.65201532     0.18800
N3216       N  0.93162576  0.24595502  0.59423344    -0.87900
H3217       H  0.86775750  0.40851081  0.61295181     0.36100
H3218       H  0.85824490  0.39477427  0.64926870     0.41200
H3219       H  0.91339333  0.22453546  0.58537395     0.40900
H3220       H  0.94505569  0.23287375  0.61408979     0.35800
C3221       C  0.88058614  0.14732151  0.87710790    -0.26000
C3222       C  0.86604222  0.17593633  0.85536774    -0.14100
C3223       C  0.84252125  0.20766872  0.86560292     0.36600
C3224       C  0.83616074  0.21172167  0.89765009    -0.25400
C3225       C  0.85326427  0.18484707  0.91970905    -0.14700
C3226       C  0.87513776  0.15186961  0.90932337     0.37700
N3227       N  0.89232416  0.12374482  0.93152606    -0.88900
H3228       H  0.89620300  0.12143058  0.86880195     0.18800
H3229       H  0.81989603  0.23750209  0.90550248     0.18800
N3230       N  0.82550808  0.23574564  0.84326388    -0.87900
H3231       H  0.90745085  0.10121383  0.92004934     0.36100
H3232       H  0.86967347  0.11014563  0.94353614     0.41200
H3233       H  0.84814162  0.24960783  0.83145961     0.40900
H3234       H  0.80985930  0.25807843  0.85455040     0.35800
C3235       C  0.87117508  0.14748997  0.58951483    -0.26000
C3236       C  0.84855333  0.18000559  0.57800981    -0.14100
C3237       C  0.83027321  0.20553753  0.59940228     0.36600
C3238       C  0.83854750  0.20085948  0.63128803    -0.25400
C3239       C  0.86354119  0.17031199  0.64255392    -0.14700
C3240       C  0.87736503  0.14145071  0.62182364     0.37700
N3241       N  0.89714461  0.10608755  0.63369748    -0.88900
H3242       H  0.88481080  0.12748495  0.57326363     0.18800
H3243       H  0.82574204  0.22152850  0.64746315     0.18800
N3244       N  0.80520344  0.23785887  0.58882003    -0.87900
H3245       H  0.90535829  0.08786651  0.61537664     0.36100
H3246       H  0.87727988  0.09005968  0.64705514     0.41200
H3247       H  0.81660564  0.26436066  0.59680433     0.40900
H3248       H  0.77806042  0.23420311  0.59915754     0.35800
O3249       O  0.91140579  0.77286328  0.46602342    -0.72600
O3250       O  0.88711393  0.69289761  0.03362152    -0.73600
O3251       O  0.88850649  0.69496062  0.46637053    -0.62200
O3252       O  0.91160780  0.77029303  0.03424814    -0.70600
O3253       O  0.84985060  0.79097780  0.03405398    -0.70200
O3254       O  0.82736719  0.71766531  0.46383873    -0.61400
O3255       O  0.82534993  0.71362309  0.03175043    -0.73900
O3256       O  0.85022276  0.79522208  0.46640087    -0.72700
Cu3257     Cu  0.90176730  0.73208795  0.00009955     1.04600
Cu3258     Cu  0.83608254  0.75502992  0.49899490     1.04300
C3259       C  0.88346685  0.79368044  0.45352486     0.93600
C3260       C  0.85314524  0.69409029  0.04541862     0.92700
C3261       C  0.85566998  0.69780164  0.45227704     0.84900
C3262       C  0.88356058  0.78906753  0.04700902     0.91100
O3263       O  0.98223336  0.55126459  0.03336908    -0.72600
O3264       O  0.96605168  0.97838957  0.46095153    -0.73600
O3265       O  0.95842847  0.97382728  0.02866400    -0.62200
O3266       O  0.98867888  0.55686361  0.46615676    -0.70600
O3267       O  0.80026780  0.53630616  0.46960618    -0.70200
O3268       O  0.77016840  0.95354379  0.03349396    -0.61400
O3269       O  0.77760897  0.95801161  0.46646813    -0.73900
O3270       O  0.79405320  0.53086585  0.03660396    -0.72700
Cu3271     Cu  0.97170077  0.51580312  0.99707818     1.04600
Cu3272     Cu  0.78756135  0.49398407  0.00161641     1.04300
C3273       C  0.01485803  0.54911230  0.04805093     0.93600
C3274       C  0.99569661  0.95905856  0.45094956     0.92700
C3275       C  0.98521844  0.95405393  0.04338798     0.84900
C3276       C  0.02337376  0.55717459  0.45587015     0.91100
C3277       C  0.96004678  0.62362295  0.25113819     0.30300
C3278       C  0.78974572  0.62362005  0.25022942     0.30300
C3279       C  0.97984224  0.60333127  0.22288098    -0.05900
C3280       C  0.97890247  0.66500265  0.25037412    -0.06600
C3281       C  0.98147404  0.60270396  0.27971448    -0.06500
C3282       C  0.77036407  0.60313270  0.22322567    -0.05900
C3283       C  0.76930919  0.66467486  0.24991889    -0.06600
C3284       C  0.77195218  0.60207412  0.27799087    -0.06500
C3285       C  0.78338407  0.58844180  0.19571687    -0.31900
N3286       N  0.00230558  0.58208570  0.17733331     0.14600
C3287       C  0.96934564  0.58958362  0.19374822    -0.31900
H3288       H  0.94019937  0.58719971  0.18450480     0.16500
C3289       C  0.78114229  0.70355019  0.24964600    -0.30900
N3290       N  0.99911576  0.72777041  0.25009351     0.13300
C3291       C  0.96695598  0.70462111  0.25048283    -0.30900
C3292       C  0.78730461  0.58979766  0.30612118    -0.31200
N3293       N  0.00831379  0.58664900  0.32673656     0.13800
H3294       H  0.81788395  0.58805282  0.31222109     0.16400
C3295       C  0.97387631  0.59345065  0.31097210    -0.31200
H3296       H  0.94570374  0.59387383  0.32188081     0.16400
H3297       H  0.93716445  0.71552597  0.25100132     0.16400
H3298       H  0.81328761  0.58583579  0.18829283     0.16500
H3299       H  0.81086853  0.71333792  0.24934246     0.16500
C3300       C  0.78888287  0.87379259  0.24757911     0.30300
C3301       C  0.95915882  0.87431483  0.24869357     0.30300
C3302       C  0.76762670  0.89391872  0.21889148    -0.05900
C3303       C  0.76982863  0.83256806  0.24911241    -0.06600
C3304       C  0.76938177  0.89491689  0.27528003    -0.06500
C3305       C  0.97712864  0.89457743  0.22017500    -0.05900
C3306       C  0.97938500  0.83308963  0.24969923    -0.06600
C3307       C  0.97903939  0.89548607  0.27545814    -0.06500
C3308       C  0.96267257  0.90856018  0.19194596    -0.31900
N3309       N  0.99269347  0.91360153  0.17244371     0.14600
C3310       C  0.77647725  0.90606058  0.18865369    -0.31900
H3311       H  0.80506706  0.90775740  0.17878372     0.16500
C3312       C  0.96746596  0.79422114  0.25049179    -0.30900
N3313       N  0.99946468  0.76990613  0.25026384     0.13300
C3314       C  0.78167449  0.79295861  0.24948117    -0.30100
C3315       C  0.96723647  0.91099806  0.30320509    -0.31200
N3316       N  0.99906834  0.91799583  0.32116456     0.13800
H3317       H  0.93734253  0.91474759  0.31024051     0.16400
C3318       C  0.78099189  0.90864450  0.30385505    -0.31200
H3319       H  0.81071600  0.90835440  0.31195263     0.16400
H3320       H  0.81144351  0.78200190  0.24885853     0.16400
H3321       H  0.93238090  0.91175480  0.18503918     0.16500
H3322       H  0.93771777  0.78450033  0.25083196     0.16500
C3323       C  0.83442702  0.87361272  0.24783708     0.30300
C3324       C  0.91420051  0.87373233  0.24866000     0.30300
C3325       C  0.85485201  0.85332295  0.22016560    -0.05900
C3326       C  0.85342918  0.91514180  0.24767109    -0.06600
C3327       C  0.85488577  0.85245296  0.27642875    -0.06500
C3328       C  0.89532433  0.85320557  0.22108807    -0.05900
C3329       C  0.89389403  0.91473261  0.24804423    -0.06600
C3330       C  0.89540503  0.85268309  0.27640072    -0.06500
C3331       C  0.90862759  0.83732836  0.19391183    -0.31900
N3332       N  0.87772640  0.83001759  0.17545780     0.14600
C3333       C  0.84467521  0.83789934  0.19165263    -0.31900
H3334       H  0.81553633  0.83400905  0.18298696     0.16500
C3335       C  0.90596740  0.95346107  0.24894796    -0.30900
N3336       N  0.87408874  0.97784656  0.24929097     0.13300
C3337       C  0.84175313  0.95487338  0.24848266    -0.30900
C3338       C  0.90866247  0.83797678  0.30473121    -0.31200
N3339       N  0.87768146  0.82963820  0.32268903     0.13800
H3340       H  0.93860157  0.83668436  0.31276670     0.16400
C3341       C  0.84465622  0.83757307  0.30558970    -0.31200
H3342       H  0.81547990  0.83501447  0.31449826     0.16400
H3343       H  0.81200645  0.96593905  0.24884251     0.16400
H3344       H  0.93861543  0.83412727  0.18684718     0.16500
H3345       H  0.93575560  0.96303258  0.24967662     0.16500
C3346       C  0.83469034  0.62423252  0.25037371     0.30300
C3347       C  0.91446201  0.62401530  0.25085165     0.30300
C3348       C  0.85362776  0.64527998  0.27741766    -0.05900
C3349       C  0.85498766  0.58313356  0.25125916    -0.06600
C3350       C  0.85316058  0.64511937  0.22270736    -0.06500
C3351       C  0.89410786  0.64483108  0.27852358    -0.05900
C3352       C  0.89542677  0.58262730  0.25153339    -0.06600
C3353       C  0.89369048  0.64468393  0.22197025    -0.06500
C3354       C  0.90383671  0.66034887  0.30721006    -0.31900
N3355       N  0.87048345  0.66958059  0.32262142     0.14600
C3356       C  0.83994469  0.66199804  0.30398735    -0.31900
H3357       H  0.80982632  0.66495646  0.31079613     0.16500
C3358       C  0.90709324  0.54289797  0.25112300    -0.30900
N3359       N  0.87474792  0.51993570  0.25063315     0.13300
C3360       C  0.84288797  0.54436795  0.25078584    -0.30900
C3361       C  0.90276516  0.65760478  0.19191940    -0.31200
N3362       N  0.86904597  0.66539597  0.17563590     0.13800
H3363       H  0.93137092  0.65916390  0.18203974     0.16400
C3364       C  0.83891335  0.65970573  0.19480917    -0.31200
H3365       H  0.80865735  0.66222798  0.18768069     0.16400
H3366       H  0.81309617  0.53480084  0.25012721     0.16400
H3367       H  0.93275954  0.66320671  0.31675362     0.16500
H3368       H  0.93683818  0.53183329  0.25070776     0.16500
C3369       C  0.78010161  0.94759005  0.40192947    -0.26000
C3370       C  0.99587612  0.94309215  0.41901100    -0.14100
C3371       C  0.96247580  0.92952463  0.40375807     0.36600
C3372       C  0.96439561  0.92044089  0.37184373    -0.25400
C3373       C  0.99831389  0.92726835  0.35414466    -0.14700
C3374       C  0.78117827  0.94235905  0.36966360     0.37700
N3375       N  0.81505739  0.95413144  0.35273320    -0.88900
H3376       H  0.80589191  0.95771538  0.41351314     0.18800
H3377       H  0.93901460  0.90806878  0.36102660     0.18800
N3378       N  0.92688345  0.92494784  0.42059001    -0.87900
H3379       H  0.83643534  0.96483866  0.36769199     0.36100
H3380       H  0.80671078  0.97774171  0.33759711     0.41200
H3381       H  0.93152316  0.90225691  0.43744977     0.40900
H3382       H  0.90481400  0.91560376  0.40569496     0.35800
C3383       C  0.96739288  0.95560514  0.12934275    -0.26000
C3384       C  0.98764944  0.92110242  0.13949279    -0.14100
C3385       C  0.74858373  0.89262968  0.11729447     0.36600
C3386       C  0.74522571  0.90225034  0.08537993    -0.25400
C3387       C  0.97783582  0.93840643  0.07516725    -0.14700
C3388       C  0.96159710  0.96427384  0.09741136     0.37700
N3389       N  0.94214852  0.00085536  0.08759992    -0.88900
H3390       H  0.95687080  0.97623240  0.14651708     0.18800
H3391       H  0.75685076  0.88178795  0.06851607     0.18800
N3392       N  0.76172041  0.85340193  0.12646734    -0.87900
H3393       H  0.93440241  0.01760467  0.10689384     0.36100
H3394       H  0.91613446  0.99344607  0.07655300     0.41200
H3395       H  0.74042388  0.84052755  0.14045760     0.40900
H3396       H  0.78692497  0.85571356  0.13977654     0.35800
C3397       C  0.79768010  0.56161777  0.37164099    -0.26000
C3398       C  0.01572094  0.58447313  0.35997190    -0.14100
C3399       C  0.99565527  0.60927720  0.38067321     0.36600
C3400       C  0.00145567  0.60344006  0.41299386    -0.25400
C3401       C  0.02977040  0.57609168  0.42481234    -0.14700
C3402       C  0.80620608  0.55885205  0.40373001     0.37700
N3403       N  0.84155884  0.53907710  0.41458156    -0.88900
H3404       H  0.81606244  0.54564516  0.35566005     0.18800
H3405       H  0.98276643  0.61909367  0.42901326     0.18800
N3406       N  0.97067926  0.64101569  0.36886958    -0.87900
H3407       H  0.85905007  0.53145840  0.39573745     0.36100
H3408       H  0.83471952  0.51236602  0.42577321     0.41200
H3409       H  0.98789919  0.66040451  0.35581892     0.40900
H3410       H  0.95981837  0.65762049  0.38727712     0.35800
C3411       C  0.99816048  0.59660709  0.09001238    -0.26000
C3412       C  0.01695547  0.56153094  0.08074175    -0.14100
C3413       C  0.78327400  0.53506463  0.10374472     0.36600
C3414       C  0.77628698  0.54159952  0.13527796    -0.25400
C3415       C  0.00579442  0.57554770  0.14456612    -0.14700
C3416       C  0.99504693  0.60523940  0.12176971     0.37700
N3417       N  0.98488867  0.64531672  0.12983190    -0.88900
H3418       H  0.98729735  0.61802048  0.07251296     0.18800
H3419       H  0.78741193  0.52032723  0.15278866     0.18800
N3420       N  0.80618765  0.50096690  0.09522378    -0.87900
H3421       H  0.70627354  0.65153932  0.12270160     0.36100
H3422       H  0.73711844  0.64945974  0.15379945     0.41200
H3423       H  0.04379472  0.47550919  0.10495848     0.40900
H3424       H  0.08387079  0.50345009  0.10524746     0.35800
C3425       C  0.91105265  0.78835735  0.40080300    -0.26000
C3426       C  0.88715846  0.80970990  0.42121323    -0.14100
C3427       C  0.86090866  0.83893282  0.40863859     0.36600
C3428       C  0.85779427  0.84493147  0.37612078    -0.25400
C3429       C  0.88039023  0.82211864  0.35583379    -0.14700
C3430       C  0.90763790  0.79406746  0.36839553     0.37700
N3431       N  0.93066179  0.77001604  0.34819057    -0.88900
H3432       H  0.93061163  0.76498205  0.40982007     0.18800
H3433       H  0.83768314  0.86749511  0.36665695     0.18800
N3434       N  0.83704497  0.86219177  0.42878636    -0.87900
H3435       H  0.92492163  0.74013324  0.35319547     0.36100
H3436       H  0.95998185  0.77459311  0.35338882     0.41200
H3437       H  0.80793586  0.85795007  0.42266398     0.40900
H3438       H  0.84306781  0.89217723  0.42467367     0.35800
C3439       C  0.86788050  0.83799929  0.08791984    -0.26000
C3440       C  0.88823542  0.80356393  0.07912556    -0.14100
C3441       C  0.90782169  0.77973322  0.10242914     0.36600
C3442       C  0.90304926  0.78869333  0.13399797    -0.25400
C3443       C  0.88107517  0.82197161  0.14279134    -0.14700
C3444       C  0.86647631  0.84892284  0.11927866     0.37700
N3445       N  0.85189422  0.88807834  0.12618175    -0.88900
H3446       H  0.85388493  0.85712384  0.07019794     0.18800
H3447       H  0.91632886  0.76950838  0.15201629     0.18800
N3448       N  0.93162411  0.74595401  0.09423427    -0.87900
H3449       H  0.86775477  0.90850934  0.11295277     0.36100
H3450       H  0.85824367  0.89477295  0.14926989     0.41200
H3451       H  0.91339185  0.72453449  0.08537453     0.40900
H3452       H  0.94505397  0.73287255  0.11409058     0.35800
C3453       C  0.88058477  0.64732202  0.37710706    -0.26000
C3454       C  0.86604114  0.67593700  0.35536686    -0.14100
C3455       C  0.84252089  0.70766991  0.36560206     0.36600
C3456       C  0.83616093  0.71172325  0.39764927    -0.25400
C3457       C  0.85326417  0.68484845  0.41970823    -0.14700
C3458       C  0.87513682  0.65187044  0.40932256     0.37700
N3459       N  0.89232278  0.62374540  0.43152529    -0.88900
H3460       H  0.89620118  0.62143081  0.36880112     0.18800
H3461       H  0.81989683  0.73750404  0.40550169     0.18800
N3462       N  0.82550792  0.73574697  0.34326304    -0.87900
H3463       H  0.90744899  0.60121404  0.42004862     0.36100
H3464       H  0.86967187  0.61014679  0.44353550     0.41200
H3465       H  0.84814159  0.74960849  0.33145840     0.40900
H3466       H  0.80985987  0.75808022  0.35454961     0.35800
C3467       C  0.87117565  0.64748979  0.08951410    -0.26000
C3468       C  0.84855286  0.68000462  0.07800900    -0.14100
C3469       C  0.83027163  0.70553584  0.09940140     0.36600
C3470       C  0.83854586  0.70085802  0.13128719    -0.25400
C3471       C  0.86354063  0.67031148  0.14255317    -0.14700
C3472       C  0.87736558  0.64145070  0.12182293     0.37700
N3473       N  0.89714618  0.60608814  0.13369681    -0.88900
H3474       H  0.88481224  0.62748532  0.07326296     0.18800
H3475       H  0.82573953  0.72152655  0.14746226     0.18800
N3476       N  0.80520086  0.73785634  0.08881909    -0.87900
H3477       H  0.90536043  0.58786733  0.11537599     0.36100
H3478       H  0.87728188  0.59005961  0.14705442     0.41200
H3479       H  0.81660207  0.76435854  0.09680346     0.40900
H3480       H  0.77805787  0.73419963  0.09915647     0.35800
O3481       O  0.91140586  0.77286334  0.96602341    -0.72600
O3482       O  0.88711391  0.69289741  0.53362151    -0.73600
O3483       O  0.88850655  0.69496072  0.96637050    -0.62200
O3484       O  0.91160774  0.77029290  0.53424819    -0.70600
O3485       O  0.84985058  0.79097781  0.53405397    -0.70200
O3486       O  0.82736723  0.71766531  0.96383874    -0.61400
O3487       O  0.82534994  0.71362300  0.53175039    -0.73900
O3488       O  0.85022279  0.79522202  0.96640084    -0.72700
Cu3489     Cu  0.90176727  0.73208783  0.50009956     1.04600
Cu3490     Cu  0.83608256  0.75502993  0.99899491     1.04300
C3491       C  0.88346689  0.79368042  0.95352484     0.93600
C3492       C  0.85314520  0.69409015  0.54541859     0.92700
C3493       C  0.85567002  0.69780166  0.95227705     0.84900
C3494       C  0.88356054  0.78906747  0.54700904     0.91100
O3495       O  0.98223340  0.55126459  0.53336910    -0.72600
O3496       O  0.96605170  0.97838963  0.96095150    -0.73600
O3497       O  0.95842851  0.97382713  0.52866398    -0.62200
O3498       O  0.98867884  0.55686347  0.96615675    -0.70600
O3499       O  0.80026776  0.53630600  0.96960616    -0.70200
O3500       O  0.77016840  0.95354375  0.53349396    -0.61400
O3501       O  0.77760887  0.95801170  0.96646816    -0.73900
O3502       O  0.79405320  0.53086581  0.53660400    -0.72700
Cu3503     Cu  0.97170076  0.51580321  0.49707817     1.04600
Cu3504     Cu  0.78756140  0.49398416  0.50161640     1.04300
C3505       C  0.01485808  0.54911233  0.54805092     0.93600
C3506       C  0.99569666  0.95905865  0.95094952     0.92700
C3507       C  0.98521849  0.95405382  0.54338798     0.84900
C3508       C  0.02337372  0.55717449  0.95587015     0.91100
C3509       C  0.96004675  0.62362298  0.75113817     0.30300
C3510       C  0.78974570  0.62362005  0.75022941     0.30300
C3511       C  0.97984221  0.60333127  0.72288096    -0.05900
C3512       C  0.97890243  0.66500267  0.75037406    -0.06600
C3513       C  0.98147399  0.60270402  0.77971449    -0.06500
C3514       C  0.77036406  0.60313268  0.72322566    -0.05900
C3515       C  0.76930917  0.66467487  0.74991889    -0.06600
C3516       C  0.77195217  0.60207416  0.77799088    -0.06500
C3517       C  0.78338407  0.58844187  0.69571683    -0.31900
N3518       N  0.00230556  0.58208568  0.67733329     0.14600
C3519       C  0.96934561  0.58958364  0.69374820    -0.31900
H3520       H  0.94019933  0.58719978  0.68450477     0.16500
C3521       C  0.78114230  0.70355017  0.74964603    -0.30900
N3522       N  0.99911574  0.72777044  0.75009335     0.13300
C3523       C  0.96695595  0.70462115  0.75048268    -0.30900
C3524       C  0.78730461  0.58979773  0.80612120    -0.31200
N3525       N  0.00831372  0.58664894  0.82673656     0.13800
H3526       H  0.81788396  0.58805282  0.81222112     0.16400
C3527       C  0.97387623  0.59345066  0.81097211    -0.31200
H3528       H  0.94570367  0.59387386  0.82188084     0.16400
H3529       H  0.93716443  0.71552601  0.75100111     0.16400
H3530       H  0.81328762  0.58583584  0.68829279     0.16500
H3531       H  0.81086858  0.71333784  0.74934250     0.16500
C3532       C  0.78888290  0.87379261  0.74757912     0.30300
C3533       C  0.95915879  0.87431482  0.74869358     0.30300
C3534       C  0.76762672  0.89391882  0.71889151    -0.05900
C3535       C  0.76982868  0.83256807  0.74911236    -0.06600
C3536       C  0.76938179  0.89491686  0.77528005    -0.06500
C3537       C  0.97712858  0.89457750  0.72017502    -0.05900
C3538       C  0.97938502  0.83308965  0.74969923    -0.06600
C3539       C  0.97903937  0.89548603  0.77545813    -0.06500
C3540       C  0.96267251  0.90856023  0.69194597    -0.31900
N3541       N  0.99269342  0.91360145  0.67244370     0.14600
C3542       C  0.77647725  0.90606061  0.68865371    -0.31900
H3543       H  0.80506707  0.90775744  0.67878375     0.16500
C3544       C  0.96746601  0.79422117  0.75049175    -0.30900
N3545       N  0.99946471  0.76990616  0.75026367     0.13300
C3546       C  0.78167452  0.79295862  0.74948120    -0.30100
C3547       C  0.96723644  0.91099806  0.80320504    -0.31200
N3548       N  0.99906831  0.91799585  0.82116450     0.13800
H3549       H  0.93734250  0.91474762  0.81024042     0.16400
C3550       C  0.78099190  0.90864449  0.80385508    -0.31200
H3551       H  0.81071602  0.90835440  0.81195267     0.16400
H3552       H  0.81144356  0.78200192  0.74885860     0.16400
H3553       H  0.93238085  0.91175484  0.68503917     0.16500
H3554       H  0.93771782  0.78450038  0.75083198     0.16500
C3555       C  0.83442703  0.87361270  0.74783712     0.30300
C3556       C  0.91420050  0.87373229  0.74866001     0.30300
C3557       C  0.85485200  0.85332290  0.72016564    -0.05900
C3558       C  0.85342920  0.91514178  0.74767112    -0.06600
C3559       C  0.85488578  0.85245290  0.77642878    -0.06500
C3560       C  0.89532431  0.85320554  0.72108809    -0.05900
C3561       C  0.89389404  0.91473258  0.74804426    -0.06600
C3562       C  0.89540503  0.85268303  0.77640072    -0.06500
C3563       C  0.90862753  0.83732842  0.69391181    -0.31900
N3564       N  0.87772632  0.83001762  0.67545781     0.14600
C3565       C  0.84467515  0.83789928  0.69165269    -0.31900
H3566       H  0.81553626  0.83400897  0.68298706     0.16500
C3567       C  0.90596742  0.95346104  0.74894799    -0.30900
N3568       N  0.87408876  0.97784655  0.74929099     0.13300
C3569       C  0.84175315  0.95487337  0.74848268    -0.30900
C3570       C  0.90866249  0.83797673  0.80473120    -0.31200
N3571       N  0.87768149  0.82963820  0.82268904     0.13800
H3572       H  0.93860159  0.83668427  0.81276667     0.16400
C3573       C  0.84465624  0.83757300  0.80558972    -0.31200
H3574       H  0.81547993  0.83501440  0.81449830     0.16400
H3575       H  0.81200649  0.96593909  0.74884254     0.16400
H3576       H  0.93861536  0.83412736  0.68684712     0.16500
H3577       H  0.93575561  0.96303255  0.74967664     0.16500
C3578       C  0.83469032  0.62423254  0.75037372     0.30300
C3579       C  0.91446198  0.62401533  0.75085163     0.30300
C3580       C  0.85362774  0.64527993  0.77741770    -0.05900
C3581       C  0.85498764  0.58313358  0.75125915    -0.06600
C3582       C  0.85316053  0.64511944  0.72270739    -0.06500
C3583       C  0.89410785  0.64483108  0.77852357    -0.05900
C3584       C  0.89542676  0.58262732  0.75153336    -0.06600
C3585       C  0.89369041  0.64468397  0.72197027    -0.06500
C3586       C  0.90383671  0.66034887  0.80721004    -0.31900
N3587       N  0.87048347  0.66958052  0.82262144     0.14600
C3588       C  0.83994469  0.66199793  0.80398741    -0.31900
H3589       H  0.80982632  0.66495637  0.81079620     0.16500
C3590       C  0.90709324  0.54289799  0.75112301    -0.30900
N3591       N  0.87474788  0.51993575  0.75063317     0.13300
C3592       C  0.84288792  0.54436800  0.75078586    -0.30900
C3593       C  0.90276508  0.65760470  0.69191940    -0.31200
N3594       N  0.86904590  0.66539592  0.67563590     0.13800
H3595       H  0.93137084  0.65916377  0.68203976     0.16400
C3596       C  0.83891330  0.65970576  0.69480918    -0.31200
H3597       H  0.80865730  0.66222804  0.68768070     0.16400
H3598       H  0.81309610  0.53480093  0.75012724     0.16400
H3599       H  0.93275954  0.66320679  0.81675356     0.16500
H3600       H  0.93683818  0.53183330  0.75070777     0.16500
C3601       C  0.78010156  0.94759009  0.90192947    -0.26000
C3602       C  0.99587616  0.94309220  0.91901094    -0.14100
C3603       C  0.96247582  0.92952473  0.90375803     0.36600
C3604       C  0.96439557  0.92044097  0.87184367    -0.25400
C3605       C  0.99831387  0.92726837  0.85414460    -0.14700
C3606       C  0.78117826  0.94235900  0.86966361     0.37700
N3607       N  0.81505738  0.95413144  0.85273322    -0.88900
H3608       H  0.80589183  0.95771547  0.91351314     0.18800
H3609       H  0.93901454  0.90806888  0.86102656     0.18800
N3610       N  0.92688350  0.92494794  0.92059001    -0.87900
H3611       H  0.83643536  0.96483859  0.86769201     0.36100
H3612       H  0.80671073  0.97774178  0.83759720     0.41200
H3613       H  0.93152324  0.90225703  0.93744977     0.40900
H3614       H  0.90481402  0.91560386  0.90569499     0.35800
C3615       C  0.96739273  0.95560495  0.62934274    -0.26000
C3616       C  0.98764937  0.92110228  0.63949277    -0.14100
C3617       C  0.74858361  0.89262953  0.61729451     0.36600
C3618       C  0.74522564  0.90225023  0.58537996    -0.25400
C3619       C  0.97783583  0.93840635  0.57516724    -0.14700
C3620       C  0.96159706  0.96427372  0.59741134     0.37700
N3621       N  0.94214859  0.00085531  0.58759994    -0.88900
H3622       H  0.95687056  0.97623213  0.64651709     0.18800
H3623       H  0.75685073  0.88178786  0.56851613     0.18800
N3624       N  0.76172042  0.85340181  0.62646737    -0.87900
H3625       H  0.93440245  0.01760454  0.60689389     0.36100
H3626       H  0.91613456  0.99344613  0.57655291     0.41200
H3627       H  0.74042396  0.84052733  0.64045765     0.40900
H3628       H  0.78692497  0.85571353  0.63977656     0.35800
C3629       C  0.79767998  0.56161760  0.87164099    -0.26000
C3630       C  0.01572089  0.58447311  0.85997191    -0.14100
C3631       C  0.99565525  0.60927723  0.88067322     0.36600
C3632       C  0.00145568  0.60344010  0.91299389    -0.25400
C3633       C  0.02977038  0.57609166  0.92481237    -0.14700
C3634       C  0.80620604  0.55885193  0.90373001     0.37700
N3635       N  0.84155880  0.53907694  0.91458152    -0.88900
H3636       H  0.81606226  0.54564493  0.85566004     0.18800
H3637       H  0.98276646  0.61909374  0.92901328     0.18800
N3638       N  0.97067928  0.64101578  0.86886960    -0.87900
H3639       H  0.85904995  0.53145816  0.89573739     0.36100
H3640       H  0.83471948  0.51236589  0.92577324     0.41200
H3641       H  0.98789924  0.66040458  0.85581896     0.40900
H3642       H  0.95981842  0.65762060  0.88727714     0.35800
C3643       C  0.99816052  0.59660709  0.59001236    -0.26000
C3644       C  0.01695554  0.56153097  0.58074173    -0.14100
C3645       C  0.78327414  0.53506475  0.60374470     0.36600
C3646       C  0.77628715  0.54159968  0.63527792    -0.25400
C3647       C  0.00579441  0.57554768  0.64456609    -0.14700
C3648       C  0.99504693  0.60523937  0.62176968     0.37700
N3649       N  0.98488862  0.64531667  0.62983184    -0.88900
H3650       H  0.98729741  0.61802049  0.57251294     0.18800
H3651       H  0.78741220  0.52032745  0.65278864     0.18800
N3652       N  0.80618790  0.50096707  0.59522378    -0.87900
H3653       H  0.70627350  0.65153950  0.62270143     0.36100
H3654       H  0.73711833  0.64945985  0.65379934     0.41200
H3655       H  0.04379493  0.47550928  0.60495840     0.40900
H3656       H  0.08387096  0.50345035  0.60524753     0.35800
C3657       C  0.91105271  0.78835742  0.90080299    -0.26000
C3658       C  0.88715849  0.80970991  0.92121323    -0.14100
C3659       C  0.86090871  0.83893285  0.90863861     0.36600
C3660       C  0.85779435  0.84493156  0.87612080    -0.25400
C3661       C  0.88039030  0.82211871  0.85583380    -0.14700
C3662       C  0.90763796  0.79406755  0.86839554     0.37700
N3663       N  0.93066183  0.77001612  0.84819058    -0.88900
H3664       H  0.93061171  0.76498211  0.90982003     0.18800
H3665       H  0.83768323  0.86749522  0.86665699     0.18800
N3666       N  0.83704494  0.86219169  0.92878639    -0.87900
H3667       H  0.92492160  0.74013333  0.85319545     0.36100
H3668       H  0.95998189  0.77459314  0.85338887     0.41200
H3669       H  0.80793586  0.85794992  0.92266400     0.40900
H3670       H  0.84306773  0.89217720  0.92467378     0.35800
C3671       C  0.86788037  0.83799920  0.58791988    -0.26000
C3672       C  0.88823535  0.80356388  0.57912559    -0.14100
C3673       C  0.90782166  0.77973323  0.60242918     0.36600
C3674       C  0.90304921  0.78869337  0.63399799    -0.25400
C3675       C  0.88107504  0.82197160  0.64279136    -0.14700
C3676       C  0.86647614  0.84892278  0.61927869     0.37700
N3677       N  0.85189419  0.88807835  0.62618175    -0.88900
H3678       H  0.85388485  0.85712374  0.57019796     0.18800
H3679       H  0.91632890  0.76950850  0.65201631     0.18800
N3680       N  0.93162415  0.74595404  0.59423434    -0.87900
H3681       H  0.86775479  0.90850925  0.61295272     0.36100
H3682       H  0.85824375  0.89477297  0.64926988     0.41200
H3683       H  0.91339193  0.72453449  0.58537453     0.40900
H3684       H  0.94505399  0.73287257  0.61409063     0.35800
C3685       C  0.88058486  0.64732202  0.87710708    -0.26000
C3686       C  0.86604122  0.67593700  0.85536689    -0.14100
C3687       C  0.84252094  0.70766990  0.86560208     0.36600
C3688       C  0.83616093  0.71172324  0.89764930    -0.25400
C3689       C  0.85326418  0.68484844  0.91970825    -0.14700
C3690       C  0.87513688  0.65187044  0.90932257     0.37700
N3691       N  0.89232281  0.62374536  0.93152530    -0.88900
H3692       H  0.89620125  0.62143078  0.86880114     0.18800
H3693       H  0.81989677  0.73750402  0.90550170     0.18800
N3694       N  0.82550793  0.73574690  0.84326304    -0.87900
H3695       H  0.90744897  0.60121399  0.92004861     0.36100
H3696       H  0.86967187  0.61014674  0.94353547     0.41200
H3697       H  0.84814156  0.74960856  0.83145846     0.40900
H3698       H  0.80985970  0.75808005  0.85454959     0.35800
C3699       C  0.87117555  0.64748970  0.58951409    -0.26000
C3700       C  0.84855273  0.68000448  0.57800897    -0.14100
C3701       C  0.83027142  0.70553567  0.59940139     0.36600
C3702       C  0.83854568  0.70085791  0.63128719    -0.25400
C3703       C  0.86354059  0.67031148  0.64255316    -0.14700
C3704       C  0.87736559  0.64145073  0.62182291     0.37700
N3705       N  0.89714622  0.60608822  0.63369681    -0.88900
H3706       H  0.88481211  0.62748519  0.57326295     0.18800
H3707       H  0.82573930  0.72152641  0.64746226     0.18800
N3708       N  0.80520064  0.73785615  0.58881907    -0.87900
H3709       H  0.90536059  0.58786746  0.61537599     0.36100
H3710       H  0.87728189  0.59005966  0.64705436     0.41200
H3711       H  0.81660195  0.76435837  0.59680339     0.40900
H3712       H  0.77805770  0.73419947  0.59915647     0.35800
loop_ 
_geom_bond_atom_site_label_1 
_geom_bond_atom_site_label_2 
_geom_bond_distance 
_geom_bond_site_symmetry_2 
_ccdc_geom_bond_type 
O1           C11   1.280       .  A
O1         Cu241   2.012       .  S
O2           C12   1.278       .  A
O2           Cu9   2.000       .  S
O3           C13   1.275       .  A
O3         Cu241   1.989       .  S
O4           C14   1.277       .  A
O4           Cu9   2.002       .  S
O5           C14   1.279       .  A
O5         Cu242   2.011   1_554  S
O6           C13   1.280       .  A
O6          Cu10   2.010       .  S
O7           C12   1.276       .  A
O7         Cu242   1.995   1_554  S
O8           C11   1.275       .  A
O8          Cu10   1.990       .  S
Cu9         O233   2.012   1_554  S
Cu9         O235   1.989   1_554  S
Cu9        Cu242   2.370   1_554  S
Cu10        O237   2.011       .  S
Cu10        O239   1.995       .  S
Cu10       Cu241   2.370       .  S
C11         C178   1.481       .  S
C12         C220   1.474       .  S
C13         C209   1.474       .  S
C14         C192   1.480       .  S
O15          C25   1.280       .  A
O15         Cu23   2.018   1_554  S
O16          C26   1.281       .  A
O16        Cu719   2.030       .  S
O17          C27   1.276       .  A
O17        Cu487   1.994   1_554  S
O18          C28   1.276       .  A
O18        Cu255   1.990       .  S
O19        C2812   1.278       .  A
O19        Cu256   2.009   1_545  S
O20        C2811   1.279   1_455  A
O20        Cu488   2.008       .  S
O21        C2810   1.276   1_455  A
O21        Cu720   1.987       .  S
O22        C2809   1.274       .  A
O22         Cu24   1.983   1_545  S
Cu23        O712   2.030   1_545  S
Cu23        O481   1.994   1_546  S
Cu23        O250   1.990       .  S
Cu23       Cu952   2.369   1_546  S
Cu24        O251   2.009   1_564  S
Cu24        O484   2.008       .  S
Cu24        O717   1.987   1_554  S
Cu24      Cu2807   2.369   1_464  S
C25         O950   1.274       .  A
C25         C164   1.473       .  S
C26         O949   1.276       .  A
C26         C122   1.483       .  S
C27         O948   1.279       .  A
C27         C139   1.474       .  S
C28         O947   1.278       .  A
C28         C153   1.481       .  S
C29          C31   1.560       .  S
C29          C33   1.565       .  S
C29          C32   1.548       .  S
C29          C99   1.567       .  S
C30          C34   1.517       .  S
C30          C36   1.518       .  S
C30          C35   1.535       .  S
C30          C98   1.546       .  S
C31          C39   1.389       .  A
C31         C962   1.393       .  A
C32          C43   1.385       .  A
C32         C963   1.389       .  A
C33          C47   1.396       .  A
C33         C964   1.394       .  A
C34          C37   1.366       .  A
C34        C2815   1.393   1_455  A
C35          C41   1.377       .  A
C35        C2816   1.389   1_455  A
C36          C44   1.361       .  A
C36        C2817   1.394   1_455  A
C37          H50   1.082       .  S
C37        N2822   1.345       .  A
N38          C39   1.363       .  A
N38         C965   1.345       .  A
N38         C167   1.432       .  S
C39          H40   1.079       .  S
C41          H51   1.081       .  S
C41        N2826   1.356   1_455  A
N42          C43   1.366       .  A
N42         C969   1.356       .  A
N42          N65   1.417       .  S
C43          H49   1.081       .  S
C44          H46   1.081       .  S
C44        N2829   1.343       .  A
N45          C47   1.369       .  A
N45         C972   1.343       .  A
N45         C150   1.443       .  S
C47          H48   1.080       .  S
C52          C54   1.555       .  S
C52          C56   1.550       .  S
C52          C55   1.546       .  S
C52          C75   1.566       .  S
C53          C57   1.527       .  S
C53          C59   1.528       .  S
C53          C58   1.536       .  S
C53          C76   1.546       .  S
C54          C62   1.387       .  A
C54        C2841   1.394   1_455  A
C55          C66   1.384       .  A
C55        C2842   1.391   1_455  A
C56          C70   1.377       .  A
C56        C2843   1.387   1_455  A
C57          C60   1.370       .  A
C57         C982   1.394       .  A
C58          C64   1.378       .  A
C58         C983   1.391       .  A
C59          C67   1.372       .  A
C59         C984   1.387       .  A
C60          H73   1.082       .  S
C60          N61   1.346       .  A
N61         C990   1.362       .  A
N61         C136   1.436       .  S
C62          H63   1.077       .  S
C62        N2845   1.362   1_455  A
C64          H74   1.081       .  S
C64          N65   1.356       .  A
N65         C994   1.366       .  A
C66          H72   1.081       .  S
C66        N2849   1.366   1_455  A
C67          H69   1.080       .  S
C67          N68   1.359       .  A
N68         C998   1.367       .  A
N68         C125   1.455       .  S
C70          H71   1.075       .  S
C70        N2852   1.367   1_455  A
C75          C77   1.550       .  S
C75          C79   1.554       .  S
C75          C78   1.554       .  S
C76          C80   1.529       .  S
C76          C82   1.525       .  S
C76          C81   1.531       .  S
C77          C85   1.384       .  A
C77          C80   1.392       .  A
C78          C89   1.388       .  A
C78          C81   1.391       .  A
C79          C93   1.386       .  A
C79          C82   1.393       .  A
C80          C83   1.372       .  A
C81          C87   1.377       .  A
C82          C90   1.369       .  A
C83          H96   1.082       .  S
C83          N84   1.348       .  A
N84          C85   1.363       .  A
N84         C195   1.438       .  S
C85          H86   1.076       .  S
C87          H97   1.081       .  S
C87          N88   1.355       .  A
N88          C89   1.368       .  A
N88         N575   1.418       .  S
C89          H95   1.081       .  S
C90          H92   1.081       .  S
C90          N91   1.351       .  A
N91          C93   1.362       .  A
N91         C181   1.438       .  S
C93          H94   1.082       .  S
C98         C100   1.521       .  S
C98         C102   1.515       .  S
C98         C101   1.534       .  S
C99         C103   1.557       .  S
C99         C105   1.562       .  S
C99         C104   1.551       .  S
C100        C108   1.366       .  A
C100        C103   1.392       .  A
C101        C112   1.377       .  A
C101        C104   1.390       .  A
C102        C116   1.362       .  A
C102        C105   1.394       .  A
C103        C106   1.388       .  A
C104        C110   1.387       .  A
C105        C113   1.389       .  A
C106        H119   1.078       .  S
C106        N107   1.363       .  A
N107        C108   1.345       .  A
N107        C206   1.434       .  S
C108        H109   1.082       .  S
C110        H120   1.081       .  S
C110        N111   1.368       .  A
N111        C112   1.355       .  A
N111        N552   1.418   1_545  S
C112        H118   1.081       .  S
C113        H115   1.077       .  S
C113        N114   1.363       .  A
N114        C116   1.343       .  A
N114        C223   1.433       .  S
C116        H117   1.082       .  S
C121        C126   1.399       .  A
C121       C2906   1.402   1_455  A
C121        H128   1.077       .  S
C122        C123   1.406       .  A
C122       C1049   1.402       .  A
C123        C124   1.411       .  A
C123        N130   1.437       .  S
C124        C125   1.418       .  A
C124        H129   1.080       .  S
C125       C1054   1.415       .  A
C126       C2909   1.415   1_455  A
C126        N127   1.437       .  S
N127        H131   1.046       .  S
N127        H132   1.045       .  S
N130        H133   1.046       .  S
N130        H134   1.045       .  S
C135        C136   1.397       .  A
C135        C140   1.403       .  A
C135        H142   1.084       .  S
C136       C1065   1.414       .  A
C137        C138   1.400       .  A
C137       C2920   1.414       .  A
C137        N144   1.429   1_655  S
C138       C2923   1.401       .  A
C138        H143   1.084   1_655  S
C139        C140   1.417       .  A
C139       C1066   1.401       .  A
C140        N141   1.438       .  S
N141        H145   1.046       .  S
N141        H146   1.045       .  S
N144        H147   1.046   1_455  S
N144        H148   1.038       .  S
C149        C154   1.403       .  A
C149       C2934   1.407       .  A
C149        H156   1.082       .  S
C150        C151   1.409       .  A
C150       C1077   1.407       .  A
C151        C152   1.405       .  A
C151        N158   1.433       .  S
C152        C153   1.406       .  A
C152        H157   1.084       .  S
C153       C1082   1.414       .  A
C154       C2937   1.414       .  A
C154        N155   1.439       .  S
N155        H159   1.046       .  S
N155        H160   1.040       .  S
N158        H161   1.046       .  S
N158        H162   1.045       .  S
C163        C164   1.401       .  A
C163        C168   1.403       .  A
C163        H170   1.084       .  S
C164       C1093   1.414       .  A
C165        C166   1.397       .  A
C165       C2948   1.414       .  A
C165        N172   1.434       .  S
C166       C2951   1.397       .  A
C166        H171   1.084       .  S
C167        C168   1.419       .  A
C167       C1094   1.397       .  A
C168        N169   1.436       .  S
N169       H1101   1.042       .  S
N169       H1102   1.042       .  S
N172       H2959   1.044   1_545  S
N172       H2960   1.046       .  S
H173       N2953   1.042       .  S
H174       N2953   1.042       .  S
H175       N1100   1.044   1_565  S
H176       N1100   1.046       .  S
C177        C178   1.406       .  A
C177        C182   1.400       .  A
C177        H184   1.084       .  S
C178        C179   1.412       .  A
C179        C180   1.405       .  A
C179        N186   1.432       .  S
C180        C181   1.404       .  A
C180        H185   1.083       .  S
C181        C182   1.407       .  A
C182        N183   1.433       .  S
N183        H187   1.046       .  S
N183        H188   1.046       .  S
N186        H189   1.046       .  S
N186        H190   1.045       .  S
C191        C192   1.402       .  A
C191        C196   1.403       .  A
C191        H198   1.084       .  S
C192        C193   1.419       .  A
C193        C194   1.404       .  A
C193        N200   1.438       .  S
C194        C195   1.398       .  A
C194        H199   1.084       .  S
C195        C196   1.418       .  A
C196        N197   1.437       .  S
N197        H201   1.046       .  S
N197        H202   1.042       .  S
N200        H203   1.041       .  S
N200        H204   1.046       .  S
C205        C206   1.402       .  A
C205        C210   1.407       .  A
C205        H212   1.083       .  S
C206        C207   1.407       .  A
C207        C208   1.402       .  A
C207        N214   1.438       .  S
C208        C209   1.406       .  A
C208        H213   1.084       .  S
C209        C210   1.410       .  A
C210        N211   1.437       .  S
N211        H215   1.046       .  S
N211        H216   1.045       .  S
N214        H217   1.045       .  S
N214        H218   1.046       .  S
C219        C220   1.403       .  A
C219        C224   1.407       .  A
C219        H226   1.084       .  S
C220        C221   1.415       .  A
C221        C222   1.397       .  A
C221        N228   1.433       .  S
C222        C223   1.398       .  A
C222        H227   1.084       .  S
C223        C224   1.410       .  A
C224        N225   1.436       .  S
N225        H229   1.045       .  S
N225        H230   1.046       .  S
N228        H231   1.045       .  S
N228        H232   1.046       .  S
O233        C243   1.280       .  A
O234        C244   1.278       .  A
O234       Cu241   2.000       .  S
O235        C245   1.275       .  A
O236        C246   1.277       .  A
O236       Cu241   2.002       .  S
O237        C246   1.279       .  A
O238        C245   1.280       .  A
O238       Cu242   2.010       .  S
O239        C244   1.276       .  A
O240        C243   1.275       .  A
O240       Cu242   1.990       .  S
C243        C410   1.481       .  S
C244        C452   1.474       .  S
C245        C441   1.474       .  S
C246        C424   1.480       .  S
O247        C257   1.280       .  A
O247       Cu255   2.018       .  S
O248        C258   1.281       .  A
O248       Cu487   2.030       .  S
O249        C259   1.276       .  A
O249       Cu719   1.994       .  S
O250        C260   1.276       .  A
O251       C3044   1.278       .  A
O252       C3043   1.279   1_455  A
O252       Cu720   2.008       .  S
O253       C3042   1.276   1_455  A
O253       Cu488   1.987   1_556  S
O254       C3041   1.274       .  A
O254       Cu256   1.983   1_545  S
Cu255       O480   2.030   1_545  S
Cu255       O713   1.994   1_545  S
Cu255     Cu1184   2.369   1_545  S
Cu256       O716   2.008       .  S
Cu256       O485   1.987       .  S
Cu256     Cu3039   2.369   1_465  S
C257       O1182   1.274       .  A
C257        C396   1.473       .  S
C258       O1181   1.276       .  A
C258        C354   1.483       .  S
C259       O1180   1.279       .  A
C259        C371   1.474       .  S
C260       O1179   1.278       .  A
C260        C385   1.481       .  S
C261        C263   1.560       .  S
C261        C265   1.565       .  S
C261        C264   1.548       .  S
C261        C331   1.567       .  S
C262        C266   1.517       .  S
C262        C268   1.518       .  S
C262        C267   1.535       .  S
C262        C330   1.546       .  S
C263        C271   1.389       .  A
C263       C1194   1.393       .  A
C264        C275   1.385       .  A
C264       C1195   1.389       .  A
C265        C279   1.396       .  A
C265       C1196   1.394       .  A
C266       C3047   1.393   1_455  A
C266        C269   1.366       .  A
C267       C3048   1.389   1_455  A
C267        C273   1.377       .  A
C268       C3049   1.394   1_455  A
C268        C276   1.361       .  A
C269        H282   1.082       .  S
C269       N3054   1.345       .  A
N270       C1197   1.345       .  A
N270        C271   1.363       .  A
N270        C399   1.432       .  S
C271        H272   1.079       .  S
C273        H283   1.081       .  S
C273       N3058   1.356   1_455  A
N274       C1201   1.356       .  A
N274        C275   1.366       .  A
N274        N297   1.417       .  S
C275        H281   1.081       .  S
C276        H278   1.081       .  S
C276       N3061   1.343       .  A
N277       C1204   1.343       .  A
N277        C279   1.369       .  A
N277        C382   1.443       .  S
C279        H280   1.080       .  S
C284        C286   1.555       .  S
C284        C288   1.550       .  S
C284        C287   1.546       .  S
C284        C307   1.566       .  S
C285        C289   1.527       .  S
C285        C291   1.528       .  S
C285        C290   1.536       .  S
C285        C308   1.546       .  S
C286        C294   1.387       .  A
C286       C3073   1.394   1_455  A
C287        C298   1.384       .  A
C287       C3074   1.391   1_455  A
C288        C302   1.377       .  A
C288       C3075   1.387   1_455  A
C289       C1214   1.394       .  A
C289        C292   1.370       .  A
C290       C1215   1.391       .  A
C290        C296   1.378       .  A
C291       C1216   1.387       .  A
C291        C299   1.372       .  A
C292        H305   1.082       .  S
C292        N293   1.346       .  A
N293       C1222   1.362       .  A
N293        C368   1.436       .  S
C294        H295   1.077       .  S
C294       N3077   1.362   1_455  A
C296        H306   1.081       .  S
C296        N297   1.356       .  A
N297       C1226   1.366       .  A
C298        H304   1.081       .  S
C298       N3081   1.366   1_455  A
C299        H301   1.080       .  S
C299        N300   1.359       .  A
N300       C1230   1.367       .  A
N300        C357   1.455       .  S
C302        H303   1.075       .  S
C302       N3084   1.367   1_455  A
C307        C309   1.550       .  S
C307        C311   1.554       .  S
C307        C310   1.554       .  S
C308        C312   1.529       .  S
C308        C314   1.525       .  S
C308        C313   1.531       .  S
C309        C317   1.384       .  A
C309        C312   1.392       .  A
C310        C321   1.388       .  A
C310        C313   1.391       .  A
C311        C325   1.386       .  A
C311        C314   1.393       .  A
C312        C315   1.372       .  A
C313        C319   1.377       .  A
C314        C322   1.369       .  A
C315        H328   1.082       .  S
C315        N316   1.348       .  A
N316        C317   1.363       .  A
N316        C427   1.438       .  S
C317        H318   1.076       .  S
C319        H329   1.081       .  S
C319        N320   1.355       .  A
N320        C321   1.368       .  A
N320        N807   1.418       .  S
C321        H327   1.081       .  S
C322        H324   1.081       .  S
C322        N323   1.351       .  A
N323        C325   1.362       .  A
N323        C413   1.438       .  S
C325        H326   1.082       .  S
C330        C332   1.521       .  S
C330        C334   1.515       .  S
C330        C333   1.534       .  S
C331        C335   1.557       .  S
C331        C337   1.562       .  S
C331        C336   1.551       .  S
C332        C340   1.366       .  A
C332        C335   1.392       .  A
C333        C344   1.377       .  A
C333        C336   1.390       .  A
C334        C348   1.362       .  A
C334        C337   1.394       .  A
C335        C338   1.388       .  A
C336        C342   1.387       .  A
C337        C345   1.389       .  A
C338        H351   1.078       .  S
C338        N339   1.363       .  A
N339        C340   1.345       .  A
N339        C438   1.434       .  S
C340        H341   1.082       .  S
C342        H352   1.081       .  S
C342        N343   1.368       .  A
N343        C344   1.355       .  A
N343        N784   1.418   1_545  S
C344        H350   1.081       .  S
C345        H347   1.077       .  S
C345        N346   1.363       .  A
N346        C348   1.343       .  A
N346        C455   1.433       .  S
C348        H349   1.082       .  S
C353       C3138   1.402   1_455  A
C353        C358   1.399       .  A
C353        H360   1.077       .  S
C354       C1281   1.402       .  A
C354        C355   1.406       .  A
C355        C356   1.411       .  A
C355        N362   1.437       .  S
C356        C357   1.418       .  A
C356        H361   1.080       .  S
C357       C1286   1.415       .  A
C358       C3141   1.415   1_455  A
C358        N359   1.437       .  S
N359        H363   1.046       .  S
N359        H364   1.045       .  S
N362        H365   1.046       .  S
N362        H366   1.045       .  S
C367        C368   1.397       .  A
C367        C372   1.403       .  A
C367        H374   1.084       .  S
C368       C1297   1.414       .  A
C369       C3152   1.414       .  A
C369        C370   1.400       .  A
C369        N376   1.429   1_655  S
C370       C3155   1.401       .  A
C370        H375   1.084   1_655  S
C371       C1298   1.401       .  A
C371        C372   1.417       .  A
C372        N373   1.438       .  S
N373        H377   1.046       .  S
N373        H378   1.045       .  S
N376        H379   1.046   1_455  S
N376        H380   1.038       .  S
C381       C3166   1.407       .  A
C381        C386   1.403       .  A
C381        H388   1.082       .  S
C382       C1309   1.407       .  A
C382        C383   1.409       .  A
C383        C384   1.405       .  A
C383        N390   1.433       .  S
C384        C385   1.406       .  A
C384        H389   1.084       .  S
C385       C1314   1.414       .  A
C386       C3169   1.414       .  A
C386        N387   1.439       .  S
N387        H391   1.046       .  S
N387        H392   1.040       .  S
N390        H393   1.046       .  S
N390        H394   1.045       .  S
C395        C396   1.401       .  A
C395        C400   1.403       .  A
C395        H402   1.084       .  S
C396       C1325   1.414       .  A
C397       C3180   1.414       .  A
C397        C398   1.397       .  A
C397        N404   1.434       .  S
C398       C3183   1.397       .  A
C398        H403   1.084       .  S
C399       C1326   1.397       .  A
C399        C400   1.419       .  A
C400        N401   1.436       .  S
N401       H1333   1.042       .  S
N401       H1334   1.042       .  S
N404       H3191   1.044   1_545  S
N404       H3192   1.046       .  S
H405       N3185   1.042       .  S
H406       N3185   1.042       .  S
H407       N1332   1.044   1_565  S
H408       N1332   1.046       .  S
C409        C410   1.406       .  A
C409        C414   1.400       .  A
C409        H416   1.084       .  S
C410        C411   1.412       .  A
C411        C412   1.405       .  A
C411        N418   1.432       .  S
C412        C413   1.404       .  A
C412        H417   1.083       .  S
C413        C414   1.407       .  A
C414        N415   1.433       .  S
N415        H419   1.046       .  S
N415        H420   1.046       .  S
N418        H421   1.046       .  S
N418        H422   1.045       .  S
C423        C424   1.402       .  A
C423        C428   1.403       .  A
C423        H430   1.084       .  S
C424        C425   1.419       .  A
C425        C426   1.404       .  A
C425        N432   1.438       .  S
C426        C427   1.398       .  A
C426        H431   1.084       .  S
C427        C428   1.418       .  A
C428        N429   1.437       .  S
N429        H433   1.046       .  S
N429        H434   1.042       .  S
N432        H435   1.041       .  S
N432        H436   1.046       .  S
C437        C438   1.402       .  A
C437        C442   1.407       .  A
C437        H444   1.083       .  S
C438        C439   1.407       .  A
C439        C440   1.402       .  A
C439        N446   1.438       .  S
C440        C441   1.406       .  A
C440        H445   1.084       .  S
C441        C442   1.410       .  A
C442        N443   1.437       .  S
N443        H447   1.046       .  S
N443        H448   1.045       .  S
N446        H449   1.045       .  S
N446        H450   1.046       .  S
C451        C452   1.403       .  A
C451        C456   1.407       .  A
C451        H458   1.084       .  S
C452        C453   1.415       .  A
C453        C454   1.397       .  A
C453        N460   1.433       .  S
C454        C455   1.398       .  A
C454        H459   1.084       .  S
C455        C456   1.410       .  A
C456        N457   1.436       .  S
N457        H461   1.045       .  S
N457        H462   1.046       .  S
N460        H463   1.045       .  S
N460        H464   1.046       .  S
O465        C475   1.280       .  A
O465       Cu705   2.012       .  S
O466        C476   1.278       .  A
O466       Cu473   2.000       .  S
O467        C477   1.275       .  A
O467       Cu705   1.989       .  S
O468        C478   1.277       .  A
O468       Cu473   2.002       .  S
O469        C478   1.279       .  A
O469       Cu706   2.011   1_554  S
O470        C477   1.280       .  A
O470       Cu474   2.010       .  S
O471        C476   1.276       .  A
O471       Cu706   1.995   1_554  S
O472        C475   1.275       .  A
O472       Cu474   1.990       .  S
Cu473       O697   2.012   1_554  S
Cu473       O699   1.989   1_554  S
Cu473      Cu706   2.370   1_554  S
Cu474       O701   2.011       .  S
Cu474       O703   1.995       .  S
Cu474      Cu705   2.370       .  S
C475        C642   1.481       .  S
C476        C684   1.474       .  S
C477        C673   1.474       .  S
C478        C656   1.480       .  S
O479        C489   1.280       .  A
O479       Cu487   2.018   1_554  S
O480        C490   1.281       .  A
O481        C491   1.276       .  A
O482        C492   1.276       .  A
O482       Cu719   1.990       .  S
O483       C3276   1.278       .  A
O483       Cu720   2.009       .  S
O484       C3275   1.279   1_455  A
O485       C3274   1.276   1_455  A
O486       C3273   1.274       .  A
O486       Cu488   1.983       .  S
Cu487       O714   1.990       .  S
Cu487     Cu1416   2.369   1_556  S
Cu488       O715   2.009   1_554  S
Cu488     Cu3271   2.369   1_454  S
C489       O1414   1.274       .  A
C489        C628   1.473       .  S
C490       O1413   1.276       .  A
C490        C586   1.483       .  S
C491       O1412   1.279       .  A
C491        C603   1.474       .  S
C492       O1411   1.278       .  A
C492        C617   1.481       .  S
C493        C495   1.560       .  S
C493        C497   1.565       .  S
C493        C496   1.548       .  S
C493        C563   1.567       .  S
C494        C498   1.517       .  S
C494        C500   1.518       .  S
C494        C499   1.535       .  S
C494        C562   1.546       .  S
C495        C503   1.389       .  A
C495       C1426   1.393       .  A
C496        C507   1.385       .  A
C496       C1427   1.389       .  A
C497        C511   1.396       .  A
C497       C1428   1.394       .  A
C498       C3279   1.393   1_455  A
C498        C501   1.366       .  A
C499       C3280   1.389   1_455  A
C499        C505   1.377       .  A
C500       C3281   1.394   1_455  A
C500        C508   1.361       .  A
C501        H514   1.082       .  S
C501       N3286   1.345       .  A
N502       C1429   1.345       .  A
N502        C503   1.363       .  A
N502        C631   1.432       .  S
C503        H504   1.079       .  S
C505        H515   1.081       .  S
C505       N3290   1.356   1_455  A
N506       C1433   1.356       .  A
N506        C507   1.366       .  A
N506        N529   1.417       .  S
C507        H513   1.081       .  S
C508        H510   1.081       .  S
C508       N3293   1.343       .  A
N509       C1436   1.343       .  A
N509        C511   1.369       .  A
N509        C614   1.443       .  S
C511        H512   1.080       .  S
C516        C518   1.555       .  S
C516        C520   1.550       .  S
C516        C519   1.546       .  S
C516        C539   1.566       .  S
C517        C521   1.527       .  S
C517        C523   1.528       .  S
C517        C522   1.536       .  S
C517        C540   1.546       .  S
C518        C526   1.387       .  A
C518       C3305   1.394   1_455  A
C519        C530   1.384       .  A
C519       C3306   1.391   1_455  A
C520        C534   1.377       .  A
C520       C3307   1.387   1_455  A
C521       C1446   1.394       .  A
C521        C524   1.370       .  A
C522       C1447   1.391       .  A
C522        C528   1.378       .  A
C523       C1448   1.387       .  A
C523        C531   1.372       .  A
C524        H537   1.082       .  S
C524        N525   1.346       .  A
N525       C1454   1.362       .  A
N525        C600   1.436       .  S
C526        H527   1.077       .  S
C526       N3309   1.362   1_455  A
C528        H538   1.081       .  S
C528        N529   1.356       .  A
N529       C1458   1.366       .  A
C530        H536   1.081       .  S
C530       N3313   1.366   1_455  A
C531        H533   1.080       .  S
C531        N532   1.359       .  A
N532       C1462   1.367       .  A
N532        C589   1.455       .  S
C534        H535   1.075       .  S
C534       N3316   1.367   1_455  A
C539        C541   1.550       .  S
C539        C543   1.554       .  S
C539        C542   1.554       .  S
C540        C544   1.529       .  S
C540        C546   1.525       .  S
C540        C545   1.531       .  S
C541        C549   1.384       .  A
C541        C544   1.392       .  A
C542        C553   1.388       .  A
C542        C545   1.391       .  A
C543        C557   1.386       .  A
C543        C546   1.393       .  A
C544        C547   1.372       .  A
C545        C551   1.377       .  A
C546        C554   1.369       .  A
C547        H560   1.082       .  S
C547        N548   1.348       .  A
N548        C549   1.363       .  A
N548        C659   1.438       .  S
C549        H550   1.076       .  S
C551        H561   1.081       .  S
C551        N552   1.355       .  A
N552        C553   1.368       .  A
C553        H559   1.081       .  S
C554        H556   1.081       .  S
C554        N555   1.351       .  A
N555        C557   1.362       .  A
N555        C645   1.438       .  S
C557        H558   1.082       .  S
C562        C564   1.521       .  S
C562        C566   1.515       .  S
C562        C565   1.534       .  S
C563        C567   1.557       .  S
C563        C569   1.562       .  S
C563        C568   1.551       .  S
C564        C572   1.366       .  A
C564        C567   1.392       .  A
C565        C576   1.377       .  A
C565        C568   1.390       .  A
C566        C580   1.362       .  A
C566        C569   1.394       .  A
C567        C570   1.388       .  A
C568        C574   1.387       .  A
C569        C577   1.389       .  A
C570        H583   1.078       .  S
C570        N571   1.363       .  A
N571        C572   1.345       .  A
N571        C670   1.434       .  S
C572        H573   1.082       .  S
C574        H584   1.081       .  S
C574        N575   1.368       .  A
N575        C576   1.355       .  A
C576        H582   1.081       .  S
C577        H579   1.077       .  S
C577        N578   1.363       .  A
N578        C580   1.343       .  A
N578        C687   1.433       .  S
C580        H581   1.082       .  S
C585       C3370   1.402   1_455  A
C585        C590   1.399       .  A
C585        H592   1.077       .  S
C586       C1513   1.402       .  A
C586        C587   1.406       .  A
C587        C588   1.411       .  A
C587        N594   1.437       .  S
C588        C589   1.418       .  A
C588        H593   1.080       .  S
C589       C1518   1.415       .  A
C590       C3373   1.415   1_455  A
C590        N591   1.437       .  S
N591        H595   1.046       .  S
N591        H596   1.045       .  S
N594        H597   1.046       .  S
N594        H598   1.045       .  S
C599        C600   1.397       .  A
C599        C604   1.403       .  A
C599        H606   1.084       .  S
C600       C1529   1.414       .  A
C601       C3384   1.414       .  A
C601        C602   1.400       .  A
C601        N608   1.429   1_655  S
C602       C3387   1.401       .  A
C602        H607   1.084   1_655  S
C603       C1530   1.401       .  A
C603        C604   1.417       .  A
C604        N605   1.438   1_565  S
N605        H609   1.046       .  S
N605        H610   1.045   1_545  S
N608        H611   1.046   1_455  S
N608        H612   1.038       .  S
C613       C3398   1.407       .  A
C613        C618   1.403       .  A
C613        H620   1.082       .  S
C614       C1541   1.407       .  A
C614        C615   1.409       .  A
C615        C616   1.405       .  A
C615        N622   1.433       .  S
C616        C617   1.406       .  A
C616        H621   1.084       .  S
C617       C1546   1.414       .  A
C618       C3401   1.414       .  A
C618        N619   1.439       .  S
N619        H623   1.046       .  S
N619        H624   1.040       .  S
N622        H625   1.046       .  S
N622        H626   1.045       .  S
C627        C628   1.401       .  A
C627        C632   1.403       .  A
C627        H634   1.084       .  S
C628       C1557   1.414       .  A
C629       C3412   1.414       .  A
C629        C630   1.397       .  A
C629        N636   1.434       .  S
C630       C3415   1.397       .  A
C630        H635   1.084       .  S
C631       C1558   1.397       .  A
C631        C632   1.419       .  A
C632        N633   1.436       .  S
N633       H1565   1.042       .  S
N633       H1566   1.042       .  S
N636       H3423   1.044       .  S
N636       H3424   1.046       .  S
H637       N3417   1.042       .  S
H638       N3417   1.042       .  S
H639       N1564   1.044       .  S
H640       N1564   1.046       .  S
C641        C642   1.406       .  A
C641        C646   1.400       .  A
C641        H648   1.084       .  S
C642        C643   1.412       .  A
C643        C644   1.405       .  A
C643        N650   1.432       .  S
C644        C645   1.404       .  A
C644        H649   1.083       .  S
C645        C646   1.407       .  A
C646        N647   1.433       .  S
N647        H651   1.046       .  S
N647        H652   1.046       .  S
N650        H653   1.046       .  S
N650        H654   1.045       .  S
C655        C656   1.402       .  A
C655        C660   1.403       .  A
C655        H662   1.084       .  S
C656        C657   1.419       .  A
C657        C658   1.404       .  A
C657        N664   1.438       .  S
C658        C659   1.398       .  A
C658        H663   1.084       .  S
C659        C660   1.418       .  A
C660        N661   1.437       .  S
N661        H665   1.046       .  S
N661        H666   1.042       .  S
N664        H667   1.041       .  S
N664        H668   1.046       .  S
C669        C670   1.402       .  A
C669        C674   1.407       .  A
C669        H676   1.083       .  S
C670        C671   1.407       .  A
C671        C672   1.402       .  A
C671        N678   1.438       .  S
C672        C673   1.406       .  A
C672        H677   1.084       .  S
C673        C674   1.410       .  A
C674        N675   1.437       .  S
N675        H679   1.046       .  S
N675        H680   1.045       .  S
N678        H681   1.045       .  S
N678        H682   1.046       .  S
C683        C684   1.403       .  A
C683        C688   1.407       .  A
C683        H690   1.084       .  S
C684        C685   1.415       .  A
C685        C686   1.397       .  A
C685        N692   1.433       .  S
C686        C687   1.398       .  A
C686        H691   1.084       .  S
C687        C688   1.410       .  A
C688        N689   1.436       .  S
N689        H693   1.045       .  S
N689        H694   1.046       .  S
N692        H695   1.045       .  S
N692        H696   1.046       .  S
O697        C707   1.280       .  A
O698        C708   1.278       .  A
O698       Cu705   2.000       .  S
O699        C709   1.275       .  A
O700        C710   1.277       .  A
O700       Cu705   2.002       .  S
O701        C710   1.279       .  A
O702        C709   1.280       .  A
O702       Cu706   2.010       .  S
O703        C708   1.276       .  A
O704        C707   1.275       .  A
O704       Cu706   1.990       .  S
C707        C874   1.481       .  S
C708        C916   1.474       .  S
C709        C905   1.474       .  S
C710        C888   1.480       .  S
O711        C721   1.280       .  A
O711       Cu719   2.018       .  S
O712        C722   1.281       .  A
O713        C723   1.276       .  A
O714        C724   1.276       .  A
O715       C3508   1.278       .  A
O716       C3507   1.279   1_455  A
O717       C3506   1.276   1_455  A
O718       C3505   1.274       .  A
O718       Cu720   1.983       .  S
Cu719     Cu1648   2.369       .  S
Cu720     Cu3503   2.369   1_455  S
C721       O1646   1.274       .  A
C721        C860   1.473       .  S
C722       O1645   1.276       .  A
C722        C818   1.483       .  S
C723       O1644   1.279       .  A
C723        C835   1.474       .  S
C724       O1643   1.278       .  A
C724        C849   1.481       .  S
C725        C727   1.560       .  S
C725        C729   1.565       .  S
C725        C728   1.548       .  S
C725        C795   1.567       .  S
C726        C730   1.517       .  S
C726        C732   1.518       .  S
C726        C731   1.535       .  S
C726        C794   1.546       .  S
C727        C735   1.389       .  A
C727       C1658   1.393       .  A
C728        C739   1.385       .  A
C728       C1659   1.389       .  A
C729        C743   1.396       .  A
C729       C1660   1.394       .  A
C730       C3511   1.393   1_455  A
C730        C733   1.366       .  A
C731       C3512   1.389   1_455  A
C731        C737   1.377       .  A
C732       C3513   1.394   1_455  A
C732        C740   1.361       .  A
C733        H746   1.082       .  S
C733       N3518   1.345       .  A
N734       C1661   1.345       .  A
N734        C735   1.363       .  A
N734        C863   1.432       .  S
C735        H736   1.079       .  S
C737        H747   1.081       .  S
C737       N3522   1.356   1_455  A
N738       C1665   1.356       .  A
N738        C739   1.366       .  A
N738        N761   1.417       .  S
C739        H745   1.081       .  S
C740        H742   1.081       .  S
C740       N3525   1.343       .  A
N741       C1668   1.343       .  A
N741        C743   1.369       .  A
N741        C846   1.443       .  S
C743        H744   1.080       .  S
C748        C750   1.555       .  S
C748        C752   1.550       .  S
C748        C751   1.546       .  S
C748        C771   1.566       .  S
C749        C753   1.527       .  S
C749        C755   1.528       .  S
C749        C754   1.536       .  S
C749        C772   1.546       .  S
C750        C758   1.387       .  A
C750       C3537   1.394   1_455  A
C751        C762   1.384       .  A
C751       C3538   1.391   1_455  A
C752        C766   1.377       .  A
C752       C3539   1.387   1_455  A
C753       C1678   1.394       .  A
C753        C756   1.370       .  A
C754       C1679   1.391       .  A
C754        C760   1.378       .  A
C755       C1680   1.387       .  A
C755        C763   1.372       .  A
C756        H769   1.082       .  S
C756        N757   1.346       .  A
N757       C1686   1.362       .  A
N757        C832   1.436       .  S
C758        H759   1.077       .  S
C758       N3541   1.362   1_455  A
C760        H770   1.081       .  S
C760        N761   1.356       .  A
N761       C1690   1.366       .  A
C762        H768   1.081       .  S
C762       N3545   1.366   1_455  A
C763        H765   1.080       .  S
C763        N764   1.359       .  A
N764       C1694   1.367       .  A
N764        C821   1.455       .  S
C766        H767   1.075       .  S
C766       N3548   1.367   1_455  A
C771        C773   1.550       .  S
C771        C775   1.554       .  S
C771        C774   1.554       .  S
C772        C776   1.529       .  S
C772        C778   1.525       .  S
C772        C777   1.531       .  S
C773        C781   1.384       .  A
C773        C776   1.392       .  A
C774        C785   1.388       .  A
C774        C777   1.391       .  A
C775        C789   1.386       .  A
C775        C778   1.393       .  A
C776        C779   1.372       .  A
C777        C783   1.377       .  A
C778        C786   1.369       .  A
C779        H792   1.082       .  S
C779        N780   1.348       .  A
N780        C781   1.363       .  A
N780        C891   1.438       .  S
C781        H782   1.076       .  S
C783        H793   1.081       .  S
C783        N784   1.355       .  A
N784        C785   1.368       .  A
C785        H791   1.081       .  S
C786        H788   1.081       .  S
C786        N787   1.351       .  A
N787        C789   1.362       .  A
N787        C877   1.438       .  S
C789        H790   1.082       .  S
C794        C796   1.521       .  S
C794        C798   1.515       .  S
C794        C797   1.534       .  S
C795        C799   1.557       .  S
C795        C801   1.562       .  S
C795        C800   1.551       .  S
C796        C804   1.366       .  A
C796        C799   1.392       .  A
C797        C808   1.377       .  A
C797        C800   1.390       .  A
C798        C812   1.362       .  A
C798        C801   1.394       .  A
C799        C802   1.388       .  A
C800        C806   1.387       .  A
C801        C809   1.389       .  A
C802        H815   1.078       .  S
C802        N803   1.363       .  A
N803        C804   1.345       .  A
N803        C902   1.434       .  S
C804        H805   1.082       .  S
C806        H816   1.081       .  S
C806        N807   1.368       .  A
N807        C808   1.355       .  A
C808        H814   1.081       .  S
C809        H811   1.077       .  S
C809        N810   1.363       .  A
N810        C812   1.343       .  A
N810        C919   1.433       .  S
C812        H813   1.082       .  S
C817       C3602   1.402   1_455  A
C817        C822   1.399       .  A
C817        H824   1.077       .  S
C818       C1745   1.402       .  A
C818        C819   1.406       .  A
C819        C820   1.411       .  A
C819        N826   1.437       .  S
C820        C821   1.418       .  A
C820        H825   1.080       .  S
C821       C1750   1.415       .  A
C822       C3605   1.415   1_455  A
C822        N823   1.437       .  S
N823        H827   1.046       .  S
N823        H828   1.045       .  S
N826        H829   1.046       .  S
N826        H830   1.045       .  S
C831        C832   1.397       .  A
C831        C836   1.403       .  A
C831        H838   1.084       .  S
C832       C1761   1.414       .  A
C833       C3616   1.414       .  A
C833        C834   1.400       .  A
C833        N840   1.429   1_655  S
C834       C3619   1.401       .  A
C834        H839   1.084   1_655  S
C835       C1762   1.401       .  A
C835        C836   1.417       .  A
C836        N837   1.438   1_565  S
N837        H841   1.046       .  S
N837        H842   1.045   1_545  S
N840        H843   1.046   1_455  S
N840        H844   1.038       .  S
C845       C3630   1.407       .  A
C845        C850   1.403       .  A
C845        H852   1.082       .  S
C846       C1773   1.407       .  A
C846        C847   1.409       .  A
C847        C848   1.405       .  A
C847        N854   1.433       .  S
C848        C849   1.406       .  A
C848        H853   1.084       .  S
C849       C1778   1.414       .  A
C850       C3633   1.414       .  A
C850        N851   1.439       .  S
N851        H855   1.046       .  S
N851        H856   1.040       .  S
N854        H857   1.046       .  S
N854        H858   1.045       .  S
C859        C860   1.401       .  A
C859        C864   1.403       .  A
C859        H866   1.084       .  S
C860       C1789   1.414       .  A
C861       C3644   1.414       .  A
C861        C862   1.397       .  A
C861        N868   1.434       .  S
C862       C3647   1.397       .  A
C862        H867   1.084       .  S
C863       C1790   1.397       .  A
C863        C864   1.419       .  A
C864        N865   1.436       .  S
N865       H1797   1.042       .  S
N865       H1798   1.042       .  S
N868       H3655   1.044       .  S
N868       H3656   1.046       .  S
H869       N3649   1.042       .  S
H870       N3649   1.042       .  S
H871       N1796   1.044       .  S
H872       N1796   1.046       .  S
C873        C874   1.406       .  A
C873        C878   1.400       .  A
C873        H880   1.084       .  S
C874        C875   1.412       .  A
C875        C876   1.405       .  A
C875        N882   1.432       .  S
C876        C877   1.404       .  A
C876        H881   1.083       .  S
C877        C878   1.407       .  A
C878        N879   1.433       .  S
N879        H883   1.046       .  S
N879        H884   1.046       .  S
N882        H885   1.046       .  S
N882        H886   1.045       .  S
C887        C888   1.402       .  A
C887        C892   1.403       .  A
C887        H894   1.084       .  S
C888        C889   1.419       .  A
C889        C890   1.404       .  A
C889        N896   1.438       .  S
C890        C891   1.398       .  A
C890        H895   1.084       .  S
C891        C892   1.418       .  A
C892        N893   1.437       .  S
N893        H897   1.046       .  S
N893        H898   1.042       .  S
N896        H899   1.041       .  S
N896        H900   1.046       .  S
C901        C902   1.402       .  A
C901        C906   1.407       .  A
C901        H908   1.083       .  S
C902        C903   1.407       .  A
C903        C904   1.402       .  A
C903        N910   1.438       .  S
C904        C905   1.406       .  A
C904        H909   1.084       .  S
C905        C906   1.410       .  A
C906        N907   1.437       .  S
N907        H911   1.046       .  S
N907        H912   1.045       .  S
N910        H913   1.045       .  S
N910        H914   1.046       .  S
C915        C916   1.403       .  A
C915        C920   1.407       .  A
C915        H922   1.084       .  S
C916        C917   1.415       .  A
C917        C918   1.397       .  A
C917        N924   1.433       .  S
C918        C919   1.398       .  A
C918        H923   1.084       .  S
C919        C920   1.410       .  A
C920        N921   1.436       .  S
N921        H925   1.045       .  S
N921        H926   1.046       .  S
N924        H927   1.045       .  S
N924        H928   1.046       .  S
O929        C939   1.280       .  A
O929      Cu1169   2.012       .  S
O930        C940   1.278       .  A
O930       Cu937   2.000       .  S
O931        C941   1.275       .  A
O931      Cu1169   1.989       .  S
O932        C942   1.277       .  A
O932       Cu937   2.002       .  S
O933        C942   1.279       .  A
O933      Cu1170   2.011   1_554  S
O934        C941   1.280       .  A
O934       Cu938   2.010       .  S
O935        C940   1.276       .  A
O935      Cu1170   1.995   1_554  S
O936        C939   1.275       .  A
O936       Cu938   1.990       .  S
Cu937      O1161   2.012   1_554  S
Cu937      O1163   1.989   1_554  S
Cu937     Cu1170   2.370   1_554  S
Cu938      O1165   2.011       .  S
Cu938      O1167   1.995       .  S
Cu938     Cu1169   2.370       .  S
C939       C1106   1.481       .  S
C940       C1148   1.474       .  S
C941       C1137   1.474       .  S
C942       C1120   1.480       .  S
O943        C953   1.280       .  A
O943       Cu951   2.018   1_554  S
O944        C954   1.281       .  A
O944      Cu1647   2.030       .  S
O945        C955   1.276       .  A
O945      Cu1415   1.994   1_554  S
O946        C956   1.276       .  A
O946      Cu1183   1.990       .  S
O947      Cu1184   2.009   1_545  S
O948      Cu1416   2.008       .  S
O949      Cu1648   1.987       .  S
O950       Cu952   1.983   1_545  S
Cu951      O1640   2.030   1_545  S
Cu951      O1409   1.994   1_546  S
Cu951      O1178   1.990       .  S
Cu951     Cu1880   2.369   1_546  S
Cu952      O1179   2.009   1_564  S
Cu952      O1412   2.008       .  S
Cu952      O1645   1.987   1_554  S
C953       O1878   1.274       .  A
C953       C1092   1.473       .  S
C954       O1877   1.276       .  A
C954       C1050   1.483       .  S
C955       O1876   1.279       .  A
C955       C1067   1.474       .  S
C956       O1875   1.278       .  A
C956       C1081   1.481       .  S
C957        C959   1.560       .  S
C957        C961   1.565       .  S
C957        C960   1.548       .  S
C957       C1027   1.567       .  S
C958        C962   1.517       .  S
C958        C964   1.518       .  S
C958        C963   1.535       .  S
C958       C1026   1.546       .  S
C959        C967   1.389       .  A
C959       C1890   1.393       .  A
C960        C971   1.385       .  A
C960       C1891   1.389       .  A
C961        C975   1.396       .  A
C961       C1892   1.394       .  A
C962        C965   1.366       .  A
C963        C969   1.377       .  A
C964        C972   1.361       .  A
C965        H978   1.082       .  S
N966       C1893   1.345       .  A
N966        C967   1.363       .  A
N966       C1095   1.432       .  S
C967        H968   1.079       .  S
C969        H979   1.081       .  S
N970       C1897   1.356       .  A
N970        C971   1.366       .  A
N970        N993   1.417       .  S
C971        H977   1.081       .  S
C972        H974   1.081       .  S
N973       C1900   1.343       .  A
N973        C975   1.369       .  A
N973       C1078   1.443       .  S
C975        H976   1.080       .  S
C980        C982   1.555       .  S
C980        C984   1.550       .  S
C980        C983   1.546       .  S
C980       C1003   1.566       .  S
C981        C985   1.527       .  S
C981        C987   1.528       .  S
C981        C986   1.536       .  S
C981       C1004   1.546       .  S
C982        C990   1.387       .  A
C983        C994   1.384       .  A
C984        C998   1.377       .  A
C985       C1910   1.394       .  A
C985        C988   1.370       .  A
C986       C1911   1.391       .  A
C986        C992   1.378       .  A
C987       C1912   1.387       .  A
C987        C995   1.372       .  A
C988       H1001   1.082       .  S
C988        N989   1.346       .  A
N989       C1918   1.362       .  A
N989       C1064   1.436       .  S
C990        H991   1.077       .  S
C992       H1002   1.081       .  S
C992        N993   1.356       .  A
N993       C1922   1.366       .  A
C994       H1000   1.081       .  S
C995        H997   1.080       .  S
C995        N996   1.359       .  A
N996       C1926   1.367       .  A
N996       C1053   1.455       .  S
C998        H999   1.075       .  S
C1003      C1005   1.550       .  S
C1003      C1007   1.554       .  S
C1003      C1006   1.554       .  S
C1004      C1008   1.529       .  S
C1004      C1010   1.525       .  S
C1004      C1009   1.531       .  S
C1005      C1013   1.384       .  A
C1005      C1008   1.392       .  A
C1006      C1017   1.388       .  A
C1006      C1009   1.391       .  A
C1007      C1021   1.386       .  A
C1007      C1010   1.393       .  A
C1008      C1011   1.372       .  A
C1009      C1015   1.377       .  A
C1010      C1018   1.369       .  A
C1011      H1024   1.082       .  S
C1011      N1012   1.348       .  A
N1012      C1013   1.363       .  A
N1012      C1123   1.438       .  S
C1013      H1014   1.076       .  S
C1015      H1025   1.081       .  S
C1015      N1016   1.355       .  A
N1016      C1017   1.368       .  A
N1016      N1503   1.418       .  S
C1017      H1023   1.081       .  S
C1018      H1020   1.081       .  S
C1018      N1019   1.351       .  A
N1019      C1021   1.362       .  A
N1019      C1109   1.438       .  S
C1021      H1022   1.082       .  S
C1026      C1028   1.521       .  S
C1026      C1030   1.515       .  S
C1026      C1029   1.534       .  S
C1027      C1031   1.557       .  S
C1027      C1033   1.562       .  S
C1027      C1032   1.551       .  S
C1028      C1036   1.366       .  A
C1028      C1031   1.392       .  A
C1029      C1040   1.377       .  A
C1029      C1032   1.390       .  A
C1030      C1044   1.362       .  A
C1030      C1033   1.394       .  A
C1031      C1034   1.388       .  A
C1032      C1038   1.387       .  A
C1033      C1041   1.389       .  A
C1034      H1047   1.078       .  S
C1034      N1035   1.363       .  A
N1035      C1036   1.345       .  A
N1035      C1134   1.434       .  S
C1036      H1037   1.082       .  S
C1038      H1048   1.081       .  S
C1038      N1039   1.368       .  A
N1039      C1040   1.355       .  A
N1039      N1480   1.418   1_545  S
C1040      H1046   1.081       .  S
C1041      H1043   1.077       .  S
C1041      N1042   1.363       .  A
N1042      C1044   1.343       .  A
N1042      C1151   1.433       .  S
C1044      H1045   1.082       .  S
C1049      C1054   1.399       .  A
C1049      H1056   1.077       .  S
C1050      C1977   1.402       .  A
C1050      C1051   1.406       .  A
C1051      C1052   1.411       .  A
C1051      N1058   1.437       .  S
C1052      C1053   1.418       .  A
C1052      H1057   1.080       .  S
C1053      C1982   1.415       .  A
C1054      N1055   1.437       .  S
N1055      H1059   1.046       .  S
N1055      H1060   1.045       .  S
N1058      H1061   1.046       .  S
N1058      H1062   1.045       .  S
C1063      C1064   1.397       .  A
C1063      C1068   1.403       .  A
C1063      H1070   1.084       .  S
C1064      C1993   1.414       .  A
C1065      C1066   1.400       .  A
C1065      N1072   1.429       .  S
C1066      H1071   1.084       .  S
C1067      C1994   1.401       .  A
C1067      C1068   1.417       .  A
C1068      N1069   1.438       .  S
N1069      H1073   1.046       .  S
N1069      H1074   1.045       .  S
N1072      H1075   1.046       .  S
N1072      H1076   1.038       .  S
C1077      C1082   1.403       .  A
C1077      H1084   1.082       .  S
C1078      C2005   1.407       .  A
C1078      C1079   1.409       .  A
C1079      C1080   1.405       .  A
C1079      N1086   1.433       .  S
C1080      C1081   1.406       .  A
C1080      H1085   1.084       .  S
C1081      C2010   1.414       .  A
C1082      N1083   1.439       .  S
N1083      H1087   1.046       .  S
N1083      H1088   1.040       .  S
N1086      H1089   1.046       .  S
N1086      H1090   1.045       .  S
C1091      C1092   1.401       .  A
C1091      C1096   1.403       .  A
C1091      H1098   1.084       .  S
C1092      C2021   1.414       .  A
C1093      C1094   1.397       .  A
C1093      N1100   1.434       .  S
C1094      H1099   1.084       .  S
C1095      C2022   1.397       .  A
C1095      C1096   1.419       .  A
C1096      N1097   1.436       .  S
N1097      H2029   1.042       .  S
N1097      H2030   1.042       .  S
H1103      N2028   1.044   1_565  S
H1104      N2028   1.046       .  S
C1105      C1106   1.406       .  A
C1105      C1110   1.400       .  A
C1105      H1112   1.084       .  S
C1106      C1107   1.412       .  A
C1107      C1108   1.405       .  A
C1107      N1114   1.432       .  S
C1108      C1109   1.404       .  A
C1108      H1113   1.083       .  S
C1109      C1110   1.407       .  A
C1110      N1111   1.433       .  S
N1111      H1115   1.046       .  S
N1111      H1116   1.046       .  S
N1114      H1117   1.046       .  S
N1114      H1118   1.045       .  S
C1119      C1120   1.402       .  A
C1119      C1124   1.403       .  A
C1119      H1126   1.084       .  S
C1120      C1121   1.419       .  A
C1121      C1122   1.404       .  A
C1121      N1128   1.438       .  S
C1122      C1123   1.398       .  A
C1122      H1127   1.084       .  S
C1123      C1124   1.418       .  A
C1124      N1125   1.437       .  S
N1125      H1129   1.046       .  S
N1125      H1130   1.042       .  S
N1128      H1131   1.041       .  S
N1128      H1132   1.046       .  S
C1133      C1134   1.402       .  A
C1133      C1138   1.407       .  A
C1133      H1140   1.083       .  S
C1134      C1135   1.407       .  A
C1135      C1136   1.402       .  A
C1135      N1142   1.438       .  S
C1136      C1137   1.406       .  A
C1136      H1141   1.084       .  S
C1137      C1138   1.410       .  A
C1138      N1139   1.437       .  S
N1139      H1143   1.046       .  S
N1139      H1144   1.045       .  S
N1142      H1145   1.045       .  S
N1142      H1146   1.046       .  S
C1147      C1148   1.403       .  A
C1147      C1152   1.407       .  A
C1147      H1154   1.084       .  S
C1148      C1149   1.415       .  A
C1149      C1150   1.397       .  A
C1149      N1156   1.433       .  S
C1150      C1151   1.398       .  A
C1150      H1155   1.084       .  S
C1151      C1152   1.410       .  A
C1152      N1153   1.436       .  S
N1153      H1157   1.045       .  S
N1153      H1158   1.046       .  S
N1156      H1159   1.045       .  S
N1156      H1160   1.046       .  S
O1161      C1171   1.280       .  A
O1162      C1172   1.278       .  A
O1162     Cu1169   2.000       .  S
O1163      C1173   1.275       .  A
O1164      C1174   1.277       .  A
O1164     Cu1169   2.002       .  S
O1165      C1174   1.279       .  A
O1166      C1173   1.280       .  A
O1166     Cu1170   2.010       .  S
O1167      C1172   1.276       .  A
O1168      C1171   1.275       .  A
O1168     Cu1170   1.990       .  S
C1171      C1338   1.481       .  S
C1172      C1380   1.474       .  S
C1173      C1369   1.474       .  S
C1174      C1352   1.480       .  S
O1175      C1185   1.280       .  A
O1175     Cu1183   2.018       .  S
O1176      C1186   1.281       .  A
O1176     Cu1415   2.030       .  S
O1177      C1187   1.276       .  A
O1177     Cu1647   1.994       .  S
O1178      C1188   1.276       .  A
O1180     Cu1648   2.008       .  S
O1181     Cu1416   1.987   1_556  S
O1182     Cu1184   1.983   1_545  S
Cu1183     O1408   2.030   1_545  S
Cu1183     O1641   1.994   1_545  S
Cu1183    Cu2112   2.369   1_545  S
Cu1184     O1644   2.008       .  S
Cu1184     O1413   1.987       .  S
C1185      O2110   1.274       .  A
C1185      C1324   1.473       .  S
C1186      O2109   1.276       .  A
C1186      C1282   1.483       .  S
C1187      O2108   1.279       .  A
C1187      C1299   1.474       .  S
C1188      O2107   1.278       .  A
C1188      C1313   1.481       .  S
C1189      C1191   1.560       .  S
C1189      C1193   1.565       .  S
C1189      C1192   1.548       .  S
C1189      C1259   1.567       .  S
C1190      C1194   1.517       .  S
C1190      C1196   1.518       .  S
C1190      C1195   1.535       .  S
C1190      C1258   1.546       .  S
C1191      C1199   1.389       .  A
C1191      C2122   1.393       .  A
C1192      C1203   1.385       .  A
C1192      C2123   1.389       .  A
C1193      C1207   1.396       .  A
C1193      C2124   1.394       .  A
C1194      C1197   1.366       .  A
C1195      C1201   1.377       .  A
C1196      C1204   1.361       .  A
C1197      H1210   1.082       .  S
N1198      C2125   1.345       .  A
N1198      C1199   1.363       .  A
N1198      C1327   1.432       .  S
C1199      H1200   1.079       .  S
C1201      H1211   1.081       .  S
N1202      C2129   1.356       .  A
N1202      C1203   1.366       .  A
N1202      N1225   1.417       .  S
C1203      H1209   1.081       .  S
C1204      H1206   1.081       .  S
N1205      C2132   1.343       .  A
N1205      C1207   1.369       .  A
N1205      C1310   1.443       .  S
C1207      H1208   1.080       .  S
C1212      C1214   1.555       .  S
C1212      C1216   1.550       .  S
C1212      C1215   1.546       .  S
C1212      C1235   1.566       .  S
C1213      C1217   1.527       .  S
C1213      C1219   1.528       .  S
C1213      C1218   1.536       .  S
C1213      C1236   1.546       .  S
C1214      C1222   1.387       .  A
C1215      C1226   1.384       .  A
C1216      C1230   1.377       .  A
C1217      C2142   1.394       .  A
C1217      C1220   1.370       .  A
C1218      C2143   1.391       .  A
C1218      C1224   1.378       .  A
C1219      C2144   1.387       .  A
C1219      C1227   1.372       .  A
C1220      H1233   1.082       .  S
C1220      N1221   1.346       .  A
N1221      C2150   1.362       .  A
N1221      C1296   1.436       .  S
C1222      H1223   1.077       .  S
C1224      H1234   1.081       .  S
C1224      N1225   1.356       .  A
N1225      C2154   1.366       .  A
C1226      H1232   1.081       .  S
C1227      H1229   1.080       .  S
C1227      N1228   1.359       .  A
N1228      C2158   1.367       .  A
N1228      C1285   1.455       .  S
C1230      H1231   1.075       .  S
C1235      C1237   1.550       .  S
C1235      C1239   1.554       .  S
C1235      C1238   1.554       .  S
C1236      C1240   1.529       .  S
C1236      C1242   1.525       .  S
C1236      C1241   1.531       .  S
C1237      C1245   1.384       .  A
C1237      C1240   1.392       .  A
C1238      C1249   1.388       .  A
C1238      C1241   1.391       .  A
C1239      C1253   1.386       .  A
C1239      C1242   1.393       .  A
C1240      C1243   1.372       .  A
C1241      C1247   1.377       .  A
C1242      C1250   1.369       .  A
C1243      H1256   1.082       .  S
C1243      N1244   1.348       .  A
N1244      C1245   1.363       .  A
N1244      C1355   1.438       .  S
C1245      H1246   1.076       .  S
C1247      H1257   1.081       .  S
C1247      N1248   1.355       .  A
N1248      C1249   1.368       .  A
N1248      N1735   1.418       .  S
C1249      H1255   1.081       .  S
C1250      H1252   1.081       .  S
C1250      N1251   1.351       .  A
N1251      C1253   1.362       .  A
N1251      C1341   1.438       .  S
C1253      H1254   1.082       .  S
C1258      C1260   1.521       .  S
C1258      C1262   1.515       .  S
C1258      C1261   1.534       .  S
C1259      C1263   1.557       .  S
C1259      C1265   1.562       .  S
C1259      C1264   1.551       .  S
C1260      C1268   1.366       .  A
C1260      C1263   1.392       .  A
C1261      C1272   1.377       .  A
C1261      C1264   1.390       .  A
C1262      C1276   1.362       .  A
C1262      C1265   1.394       .  A
C1263      C1266   1.388       .  A
C1264      C1270   1.387       .  A
C1265      C1273   1.389       .  A
C1266      H1279   1.078       .  S
C1266      N1267   1.363       .  A
N1267      C1268   1.345       .  A
N1267      C1366   1.434       .  S
C1268      H1269   1.082       .  S
C1270      H1280   1.081       .  S
C1270      N1271   1.368       .  A
N1271      C1272   1.355       .  A
N1271      N1712   1.418   1_545  S
C1272      H1278   1.081       .  S
C1273      H1275   1.077       .  S
C1273      N1274   1.363       .  A
N1274      C1276   1.343       .  A
N1274      C1383   1.433       .  S
C1276      H1277   1.082       .  S
C1281      C1286   1.399       .  A
C1281      H1288   1.077       .  S
C1282      C2209   1.402       .  A
C1282      C1283   1.406       .  A
C1283      C1284   1.411       .  A
C1283      N1290   1.437       .  S
C1284      C1285   1.418       .  A
C1284      H1289   1.080       .  S
C1285      C2214   1.415       .  A
C1286      N1287   1.437       .  S
N1287      H1291   1.046       .  S
N1287      H1292   1.045       .  S
N1290      H1293   1.046       .  S
N1290      H1294   1.045       .  S
C1295      C1296   1.397       .  A
C1295      C1300   1.403       .  A
C1295      H1302   1.084       .  S
C1296      C2225   1.414       .  A
C1297      C1298   1.400       .  A
C1297      N1304   1.429       .  S
C1298      H1303   1.084       .  S
C1299      C2226   1.401       .  A
C1299      C1300   1.417       .  A
C1300      N1301   1.438       .  S
N1301      H1305   1.046       .  S
N1301      H1306   1.045       .  S
N1304      H1307   1.046       .  S
N1304      H1308   1.038       .  S
C1309      C1314   1.403       .  A
C1309      H1316   1.082       .  S
C1310      C2237   1.407       .  A
C1310      C1311   1.409       .  A
C1311      C1312   1.405       .  A
C1311      N1318   1.433       .  S
C1312      C1313   1.406       .  A
C1312      H1317   1.084       .  S
C1313      C2242   1.414       .  A
C1314      N1315   1.439       .  S
N1315      H1319   1.046       .  S
N1315      H1320   1.040       .  S
N1318      H1321   1.046       .  S
N1318      H1322   1.045       .  S
C1323      C1324   1.401       .  A
C1323      C1328   1.403       .  A
C1323      H1330   1.084       .  S
C1324      C2253   1.414       .  A
C1325      C1326   1.397       .  A
C1325      N1332   1.434       .  S
C1326      H1331   1.084       .  S
C1327      C2254   1.397       .  A
C1327      C1328   1.419       .  A
C1328      N1329   1.436       .  S
N1329      H2261   1.042       .  S
N1329      H2262   1.042       .  S
H1335      N2260   1.044   1_565  S
H1336      N2260   1.046       .  S
C1337      C1338   1.406       .  A
C1337      C1342   1.400       .  A
C1337      H1344   1.084       .  S
C1338      C1339   1.412       .  A
C1339      C1340   1.405       .  A
C1339      N1346   1.432       .  S
C1340      C1341   1.404       .  A
C1340      H1345   1.083       .  S
C1341      C1342   1.407       .  A
C1342      N1343   1.433       .  S
N1343      H1347   1.046       .  S
N1343      H1348   1.046       .  S
N1346      H1349   1.046       .  S
N1346      H1350   1.045       .  S
C1351      C1352   1.402       .  A
C1351      C1356   1.403       .  A
C1351      H1358   1.084       .  S
C1352      C1353   1.419       .  A
C1353      C1354   1.404       .  A
C1353      N1360   1.438       .  S
C1354      C1355   1.398       .  A
C1354      H1359   1.084       .  S
C1355      C1356   1.418       .  A
C1356      N1357   1.437       .  S
N1357      H1361   1.046       .  S
N1357      H1362   1.042       .  S
N1360      H1363   1.041       .  S
N1360      H1364   1.046       .  S
C1365      C1366   1.402       .  A
C1365      C1370   1.407       .  A
C1365      H1372   1.083       .  S
C1366      C1367   1.407       .  A
C1367      C1368   1.402       .  A
C1367      N1374   1.438       .  S
C1368      C1369   1.406       .  A
C1368      H1373   1.084       .  S
C1369      C1370   1.410       .  A
C1370      N1371   1.437       .  S
N1371      H1375   1.046       .  S
N1371      H1376   1.045       .  S
N1374      H1377   1.045       .  S
N1374      H1378   1.046       .  S
C1379      C1380   1.403       .  A
C1379      C1384   1.407       .  A
C1379      H1386   1.084       .  S
C1380      C1381   1.415       .  A
C1381      C1382   1.397       .  A
C1381      N1388   1.433       .  S
C1382      C1383   1.398       .  A
C1382      H1387   1.084       .  S
C1383      C1384   1.410       .  A
C1384      N1385   1.436       .  S
N1385      H1389   1.045       .  S
N1385      H1390   1.046       .  S
N1388      H1391   1.045       .  S
N1388      H1392   1.046       .  S
O1393      C1403   1.280       .  A
O1393     Cu1633   2.012       .  S
O1394      C1404   1.278       .  A
O1394     Cu1401   2.000       .  S
O1395      C1405   1.275       .  A
O1395     Cu1633   1.989       .  S
O1396      C1406   1.277       .  A
O1396     Cu1401   2.002       .  S
O1397      C1406   1.279       .  A
O1397     Cu1634   2.011   1_554  S
O1398      C1405   1.280       .  A
O1398     Cu1402   2.010       .  S
O1399      C1404   1.276       .  A
O1399     Cu1634   1.995   1_554  S
O1400      C1403   1.275       .  A
O1400     Cu1402   1.990       .  S
Cu1401     O1625   2.012   1_554  S
Cu1401     O1627   1.989   1_554  S
Cu1401    Cu1634   2.370   1_554  S
Cu1402     O1629   2.011       .  S
Cu1402     O1631   1.995       .  S
Cu1402    Cu1633   2.370       .  S
C1403      C1570   1.481       .  S
C1404      C1612   1.474       .  S
C1405      C1601   1.474       .  S
C1406      C1584   1.480       .  S
O1407      C1417   1.280       .  A
O1407     Cu1415   2.018   1_554  S
O1408      C1418   1.281       .  A
O1409      C1419   1.276       .  A
O1410      C1420   1.276       .  A
O1410     Cu1647   1.990       .  S
O1411     Cu1648   2.009       .  S
O1414     Cu1416   1.983       .  S
Cu1415     O1642   1.990       .  S
Cu1415    Cu2344   2.369   1_556  S
Cu1416     O1643   2.009   1_554  S
C1417      O2342   1.274       .  A
C1417      C1556   1.473       .  S
C1418      O2341   1.276       .  A
C1418      C1514   1.483       .  S
C1419      O2340   1.279       .  A
C1419      C1531   1.474       .  S
C1420      O2339   1.278       .  A
C1420      C1545   1.481       .  S
C1421      C1423   1.560       .  S
C1421      C1425   1.565       .  S
C1421      C1424   1.548       .  S
C1421      C1491   1.567       .  S
C1422      C1426   1.517       .  S
C1422      C1428   1.518       .  S
C1422      C1427   1.535       .  S
C1422      C1490   1.546       .  S
C1423      C1431   1.389       .  A
C1423      C2354   1.393       .  A
C1424      C1435   1.385       .  A
C1424      C2355   1.389       .  A
C1425      C1439   1.396       .  A
C1425      C2356   1.394       .  A
C1426      C1429   1.366       .  A
C1427      C1433   1.377       .  A
C1428      C1436   1.361       .  A
C1429      H1442   1.082       .  S
N1430      C2357   1.345       .  A
N1430      C1431   1.363       .  A
N1430      C1559   1.432       .  S
C1431      H1432   1.079       .  S
C1433      H1443   1.081       .  S
N1434      C2361   1.356       .  A
N1434      C1435   1.366       .  A
N1434      N1457   1.417       .  S
C1435      H1441   1.081       .  S
C1436      H1438   1.081       .  S
N1437      C2364   1.343       .  A
N1437      C1439   1.369       .  A
N1437      C1542   1.443       .  S
C1439      H1440   1.080       .  S
C1444      C1446   1.555       .  S
C1444      C1448   1.550       .  S
C1444      C1447   1.546       .  S
C1444      C1467   1.566       .  S
C1445      C1449   1.527       .  S
C1445      C1451   1.528       .  S
C1445      C1450   1.536       .  S
C1445      C1468   1.546       .  S
C1446      C1454   1.387       .  A
C1447      C1458   1.384       .  A
C1448      C1462   1.377       .  A
C1449      C2374   1.394       .  A
C1449      C1452   1.370       .  A
C1450      C2375   1.391       .  A
C1450      C1456   1.378       .  A
C1451      C2376   1.387       .  A
C1451      C1459   1.372       .  A
C1452      H1465   1.082       .  S
C1452      N1453   1.346       .  A
N1453      C2382   1.362       .  A
N1453      C1528   1.436       .  S
C1454      H1455   1.077       .  S
C1456      H1466   1.081       .  S
C1456      N1457   1.356       .  A
N1457      C2386   1.366       .  A
C1458      H1464   1.081       .  S
C1459      H1461   1.080       .  S
C1459      N1460   1.359       .  A
N1460      C2390   1.367       .  A
N1460      C1517   1.455       .  S
C1462      H1463   1.075       .  S
C1467      C1469   1.550       .  S
C1467      C1471   1.554       .  S
C1467      C1470   1.554       .  S
C1468      C1472   1.529       .  S
C1468      C1474   1.525       .  S
C1468      C1473   1.531       .  S
C1469      C1477   1.384       .  A
C1469      C1472   1.392       .  A
C1470      C1481   1.388       .  A
C1470      C1473   1.391       .  A
C1471      C1485   1.386       .  A
C1471      C1474   1.393       .  A
C1472      C1475   1.372       .  A
C1473      C1479   1.377       .  A
C1474      C1482   1.369       .  A
C1475      H1488   1.082       .  S
C1475      N1476   1.348       .  A
N1476      C1477   1.363       .  A
N1476      C1587   1.438       .  S
C1477      H1478   1.076       .  S
C1479      H1489   1.081       .  S
C1479      N1480   1.355       .  A
N1480      C1481   1.368       .  A
C1481      H1487   1.081       .  S
C1482      H1484   1.081       .  S
C1482      N1483   1.351       .  A
N1483      C1485   1.362       .  A
N1483      C1573   1.438       .  S
C1485      H1486   1.082       .  S
C1490      C1492   1.521       .  S
C1490      C1494   1.515       .  S
C1490      C1493   1.534       .  S
C1491      C1495   1.557       .  S
C1491      C1497   1.562       .  S
C1491      C1496   1.551       .  S
C1492      C1500   1.366       .  A
C1492      C1495   1.392       .  A
C1493      C1504   1.377       .  A
C1493      C1496   1.390       .  A
C1494      C1508   1.362       .  A
C1494      C1497   1.394       .  A
C1495      C1498   1.388       .  A
C1496      C1502   1.387       .  A
C1497      C1505   1.389       .  A
C1498      H1511   1.078       .  S
C1498      N1499   1.363       .  A
N1499      C1500   1.345       .  A
N1499      C1598   1.434       .  S
C1500      H1501   1.082       .  S
C1502      H1512   1.081       .  S
C1502      N1503   1.368       .  A
N1503      C1504   1.355       .  A
C1504      H1510   1.081       .  S
C1505      H1507   1.077       .  S
C1505      N1506   1.363       .  A
N1506      C1508   1.343       .  A
N1506      C1615   1.433       .  S
C1508      H1509   1.082       .  S
C1513      C1518   1.399       .  A
C1513      H1520   1.077       .  S
C1514      C2441   1.402       .  A
C1514      C1515   1.406       .  A
C1515      C1516   1.411       .  A
C1515      N1522   1.437       .  S
C1516      C1517   1.418       .  A
C1516      H1521   1.080       .  S
C1517      C2446   1.415       .  A
C1518      N1519   1.437       .  S
N1519      H1523   1.046       .  S
N1519      H1524   1.045       .  S
N1522      H1525   1.046       .  S
N1522      H1526   1.045       .  S
C1527      C1528   1.397       .  A
C1527      C1532   1.403       .  A
C1527      H1534   1.084       .  S
C1528      C2457   1.414       .  A
C1529      C1530   1.400       .  A
C1529      N1536   1.429       .  S
C1530      H1535   1.084       .  S
C1531      C2458   1.401       .  A
C1531      C1532   1.417       .  A
C1532      N1533   1.438   1_565  S
N1533      H1537   1.046       .  S
N1533      H1538   1.045   1_545  S
N1536      H1539   1.046       .  S
N1536      H1540   1.038       .  S
C1541      C1546   1.403       .  A
C1541      H1548   1.082       .  S
C1542      C2469   1.407       .  A
C1542      C1543   1.409       .  A
C1543      C1544   1.405       .  A
C1543      N1550   1.433       .  S
C1544      C1545   1.406       .  A
C1544      H1549   1.084       .  S
C1545      C2474   1.414       .  A
C1546      N1547   1.439       .  S
N1547      H1551   1.046       .  S
N1547      H1552   1.040       .  S
N1550      H1553   1.046       .  S
N1550      H1554   1.045       .  S
C1555      C1556   1.401       .  A
C1555      C1560   1.403       .  A
C1555      H1562   1.084       .  S
C1556      C2485   1.414       .  A
C1557      C1558   1.397       .  A
C1557      N1564   1.434       .  S
C1558      H1563   1.084       .  S
C1559      C2486   1.397       .  A
C1559      C1560   1.419       .  A
C1560      N1561   1.436       .  S
N1561      H2493   1.042       .  S
N1561      H2494   1.042       .  S
H1567      N2492   1.044       .  S
H1568      N2492   1.046       .  S
C1569      C1570   1.406       .  A
C1569      C1574   1.400       .  A
C1569      H1576   1.084       .  S
C1570      C1571   1.412       .  A
C1571      C1572   1.405       .  A
C1571      N1578   1.432       .  S
C1572      C1573   1.404       .  A
C1572      H1577   1.083       .  S
C1573      C1574   1.407       .  A
C1574      N1575   1.433       .  S
N1575      H1579   1.046       .  S
N1575      H1580   1.046       .  S
N1578      H1581   1.046       .  S
N1578      H1582   1.045       .  S
C1583      C1584   1.402       .  A
C1583      C1588   1.403       .  A
C1583      H1590   1.084       .  S
C1584      C1585   1.419       .  A
C1585      C1586   1.404       .  A
C1585      N1592   1.438       .  S
C1586      C1587   1.398       .  A
C1586      H1591   1.084       .  S
C1587      C1588   1.418       .  A
C1588      N1589   1.437       .  S
N1589      H1593   1.046       .  S
N1589      H1594   1.042       .  S
N1592      H1595   1.041       .  S
N1592      H1596   1.046       .  S
C1597      C1598   1.402       .  A
C1597      C1602   1.407       .  A
C1597      H1604   1.083       .  S
C1598      C1599   1.407       .  A
C1599      C1600   1.402       .  A
C1599      N1606   1.438       .  S
C1600      C1601   1.406       .  A
C1600      H1605   1.084       .  S
C1601      C1602   1.410       .  A
C1602      N1603   1.437       .  S
N1603      H1607   1.046       .  S
N1603      H1608   1.045       .  S
N1606      H1609   1.045       .  S
N1606      H1610   1.046       .  S
C1611      C1612   1.403       .  A
C1611      C1616   1.407       .  A
C1611      H1618   1.084       .  S
C1612      C1613   1.415       .  A
C1613      C1614   1.397       .  A
C1613      N1620   1.433       .  S
C1614      C1615   1.398       .  A
C1614      H1619   1.084       .  S
C1615      C1616   1.410       .  A
C1616      N1617   1.436       .  S
N1617      H1621   1.045       .  S
N1617      H1622   1.046       .  S
N1620      H1623   1.045       .  S
N1620      H1624   1.046       .  S
O1625      C1635   1.280       .  A
O1626      C1636   1.278       .  A
O1626     Cu1633   2.000       .  S
O1627      C1637   1.275       .  A
O1628      C1638   1.277       .  A
O1628     Cu1633   2.002       .  S
O1629      C1638   1.279       .  A
O1630      C1637   1.280       .  A
O1630     Cu1634   2.010       .  S
O1631      C1636   1.276       .  A
O1632      C1635   1.275       .  A
O1632     Cu1634   1.990       .  S
C1635      C1802   1.481       .  S
C1636      C1844   1.474       .  S
C1637      C1833   1.474       .  S
C1638      C1816   1.480       .  S
O1639      C1649   1.280       .  A
O1639     Cu1647   2.018       .  S
O1640      C1650   1.281       .  A
O1641      C1651   1.276       .  A
O1642      C1652   1.276       .  A
O1646     Cu1648   1.983       .  S
Cu1647    Cu2576   2.369       .  S
C1649      O2574   1.274       .  A
C1649      C1788   1.473       .  S
C1650      O2573   1.276       .  A
C1650      C1746   1.483       .  S
C1651      O2572   1.279       .  A
C1651      C1763   1.474       .  S
C1652      O2571   1.278       .  A
C1652      C1777   1.481       .  S
C1653      C1655   1.560       .  S
C1653      C1657   1.565       .  S
C1653      C1656   1.548       .  S
C1653      C1723   1.567       .  S
C1654      C1658   1.517       .  S
C1654      C1660   1.518       .  S
C1654      C1659   1.535       .  S
C1654      C1722   1.546       .  S
C1655      C1663   1.389       .  A
C1655      C2586   1.393       .  A
C1656      C1667   1.385       .  A
C1656      C2587   1.389       .  A
C1657      C1671   1.396       .  A
C1657      C2588   1.394       .  A
C1658      C1661   1.366       .  A
C1659      C1665   1.377       .  A
C1660      C1668   1.361       .  A
C1661      H1674   1.082       .  S
N1662      C2589   1.345       .  A
N1662      C1663   1.363       .  A
N1662      C1791   1.432       .  S
C1663      H1664   1.079       .  S
C1665      H1675   1.081       .  S
N1666      C2593   1.356       .  A
N1666      C1667   1.366       .  A
N1666      N1689   1.417       .  S
C1667      H1673   1.081       .  S
C1668      H1670   1.081       .  S
N1669      C2596   1.343       .  A
N1669      C1671   1.369       .  A
N1669      C1774   1.443       .  S
C1671      H1672   1.080       .  S
C1676      C1678   1.555       .  S
C1676      C1680   1.550       .  S
C1676      C1679   1.546       .  S
C1676      C1699   1.566       .  S
C1677      C1681   1.527       .  S
C1677      C1683   1.528       .  S
C1677      C1682   1.536       .  S
C1677      C1700   1.546       .  S
C1678      C1686   1.387       .  A
C1679      C1690   1.384       .  A
C1680      C1694   1.377       .  A
C1681      C2606   1.394       .  A
C1681      C1684   1.370       .  A
C1682      C2607   1.391       .  A
C1682      C1688   1.378       .  A
C1683      C2608   1.387       .  A
C1683      C1691   1.372       .  A
C1684      H1697   1.082       .  S
C1684      N1685   1.346       .  A
N1685      C2614   1.362       .  A
N1685      C1760   1.436       .  S
C1686      H1687   1.077       .  S
C1688      H1698   1.081       .  S
C1688      N1689   1.356       .  A
N1689      C2618   1.366       .  A
C1690      H1696   1.081       .  S
C1691      H1693   1.080       .  S
C1691      N1692   1.359       .  A
N1692      C2622   1.367       .  A
N1692      C1749   1.455       .  S
C1694      H1695   1.075       .  S
C1699      C1701   1.550       .  S
C1699      C1703   1.554       .  S
C1699      C1702   1.554       .  S
C1700      C1704   1.529       .  S
C1700      C1706   1.525       .  S
C1700      C1705   1.531       .  S
C1701      C1709   1.384       .  A
C1701      C1704   1.392       .  A
C1702      C1713   1.388       .  A
C1702      C1705   1.391       .  A
C1703      C1717   1.386       .  A
C1703      C1706   1.393       .  A
C1704      C1707   1.372       .  A
C1705      C1711   1.377       .  A
C1706      C1714   1.369       .  A
C1707      H1720   1.082       .  S
C1707      N1708   1.348       .  A
N1708      C1709   1.363       .  A
N1708      C1819   1.438       .  S
C1709      H1710   1.076       .  S
C1711      H1721   1.081       .  S
C1711      N1712   1.355       .  A
N1712      C1713   1.368       .  A
C1713      H1719   1.081       .  S
C1714      H1716   1.081       .  S
C1714      N1715   1.351       .  A
N1715      C1717   1.362       .  A
N1715      C1805   1.438       .  S
C1717      H1718   1.082       .  S
C1722      C1724   1.521       .  S
C1722      C1726   1.515       .  S
C1722      C1725   1.534       .  S
C1723      C1727   1.557       .  S
C1723      C1729   1.562       .  S
C1723      C1728   1.551       .  S
C1724      C1732   1.366       .  A
C1724      C1727   1.392       .  A
C1725      C1736   1.377       .  A
C1725      C1728   1.390       .  A
C1726      C1740   1.362       .  A
C1726      C1729   1.394       .  A
C1727      C1730   1.388       .  A
C1728      C1734   1.387       .  A
C1729      C1737   1.389       .  A
C1730      H1743   1.078       .  S
C1730      N1731   1.363       .  A
N1731      C1732   1.345       .  A
N1731      C1830   1.434       .  S
C1732      H1733   1.082       .  S
C1734      H1744   1.081       .  S
C1734      N1735   1.368       .  A
N1735      C1736   1.355       .  A
C1736      H1742   1.081       .  S
C1737      H1739   1.077       .  S
C1737      N1738   1.363       .  A
N1738      C1740   1.343       .  A
N1738      C1847   1.433       .  S
C1740      H1741   1.082       .  S
C1745      C1750   1.399       .  A
C1745      H1752   1.077       .  S
C1746      C2673   1.402       .  A
C1746      C1747   1.406       .  A
C1747      C1748   1.411       .  A
C1747      N1754   1.437       .  S
C1748      C1749   1.418       .  A
C1748      H1753   1.080       .  S
C1749      C2678   1.415       .  A
C1750      N1751   1.437       .  S
N1751      H1755   1.046       .  S
N1751      H1756   1.045       .  S
N1754      H1757   1.046       .  S
N1754      H1758   1.045       .  S
C1759      C1760   1.397       .  A
C1759      C1764   1.403       .  A
C1759      H1766   1.084       .  S
C1760      C2689   1.414       .  A
C1761      C1762   1.400       .  A
C1761      N1768   1.429       .  S
C1762      H1767   1.084       .  S
C1763      C2690   1.401       .  A
C1763      C1764   1.417       .  A
C1764      N1765   1.438   1_565  S
N1765      H1769   1.046       .  S
N1765      H1770   1.045   1_545  S
N1768      H1771   1.046       .  S
N1768      H1772   1.038       .  S
C1773      C1778   1.403       .  A
C1773      H1780   1.082       .  S
C1774      C2701   1.407       .  A
C1774      C1775   1.409       .  A
C1775      C1776   1.405       .  A
C1775      N1782   1.433       .  S
C1776      C1777   1.406       .  A
C1776      H1781   1.084       .  S
C1777      C2706   1.414       .  A
C1778      N1779   1.439       .  S
N1779      H1783   1.046       .  S
N1779      H1784   1.040       .  S
N1782      H1785   1.046       .  S
N1782      H1786   1.045       .  S
C1787      C1788   1.401       .  A
C1787      C1792   1.403       .  A
C1787      H1794   1.084       .  S
C1788      C2717   1.414       .  A
C1789      C1790   1.397       .  A
C1789      N1796   1.434       .  S
C1790      H1795   1.084       .  S
C1791      C2718   1.397       .  A
C1791      C1792   1.419       .  A
C1792      N1793   1.436       .  S
N1793      H2725   1.042       .  S
N1793      H2726   1.042       .  S
H1799      N2724   1.044       .  S
H1800      N2724   1.046       .  S
C1801      C1802   1.406       .  A
C1801      C1806   1.400       .  A
C1801      H1808   1.084       .  S
C1802      C1803   1.412       .  A
C1803      C1804   1.405       .  A
C1803      N1810   1.432       .  S
C1804      C1805   1.404       .  A
C1804      H1809   1.083       .  S
C1805      C1806   1.407       .  A
C1806      N1807   1.433       .  S
N1807      H1811   1.046       .  S
N1807      H1812   1.046       .  S
N1810      H1813   1.046       .  S
N1810      H1814   1.045       .  S
C1815      C1816   1.402       .  A
C1815      C1820   1.403       .  A
C1815      H1822   1.084       .  S
C1816      C1817   1.419       .  A
C1817      C1818   1.404       .  A
C1817      N1824   1.438       .  S
C1818      C1819   1.398       .  A
C1818      H1823   1.084       .  S
C1819      C1820   1.418       .  A
C1820      N1821   1.437       .  S
N1821      H1825   1.046       .  S
N1821      H1826   1.042       .  S
N1824      H1827   1.041       .  S
N1824      H1828   1.046       .  S
C1829      C1830   1.402       .  A
C1829      C1834   1.407       .  A
C1829      H1836   1.083       .  S
C1830      C1831   1.407       .  A
C1831      C1832   1.402       .  A
C1831      N1838   1.438       .  S
C1832      C1833   1.406       .  A
C1832      H1837   1.084       .  S
C1833      C1834   1.410       .  A
C1834      N1835   1.437       .  S
N1835      H1839   1.046       .  S
N1835      H1840   1.045       .  S
N1838      H1841   1.045       .  S
N1838      H1842   1.046       .  S
C1843      C1844   1.403       .  A
C1843      C1848   1.407       .  A
C1843      H1850   1.084       .  S
C1844      C1845   1.415       .  A
C1845      C1846   1.397       .  A
C1845      N1852   1.433       .  S
C1846      C1847   1.398       .  A
C1846      H1851   1.084       .  S
C1847      C1848   1.410       .  A
C1848      N1849   1.436       .  S
N1849      H1853   1.045       .  S
N1849      H1854   1.046       .  S
N1852      H1855   1.045       .  S
N1852      H1856   1.046       .  S
O1857      C1867   1.280       .  A
O1857     Cu2097   2.012       .  S
O1858      C1868   1.278       .  A
O1858     Cu1865   2.000       .  S
O1859      C1869   1.275       .  A
O1859     Cu2097   1.989       .  S
O1860      C1870   1.277       .  A
O1860     Cu1865   2.002       .  S
O1861      C1870   1.279       .  A
O1861     Cu2098   2.011   1_554  S
O1862      C1869   1.280       .  A
O1862     Cu1866   2.010       .  S
O1863      C1868   1.276       .  A
O1863     Cu2098   1.995   1_554  S
O1864      C1867   1.275       .  A
O1864     Cu1866   1.990       .  S
Cu1865     O2089   2.012   1_554  S
Cu1865     O2091   1.989   1_554  S
Cu1865    Cu2098   2.370   1_554  S
Cu1866     O2093   2.011       .  S
Cu1866     O2095   1.995       .  S
Cu1866    Cu2097   2.370       .  S
C1867      C2034   1.481       .  S
C1868      C2076   1.474       .  S
C1869      C2065   1.474       .  S
C1870      C2048   1.480       .  S
O1871      C1881   1.280       .  A
O1871     Cu1879   2.018   1_554  S
O1872      C1882   1.281       .  A
O1872     Cu2575   2.030       .  S
O1873      C1883   1.276       .  A
O1873     Cu2343   1.994   1_554  S
O1874      C1884   1.276       .  A
O1874     Cu2111   1.990       .  S
O1875     Cu2112   2.009   1_545  S
O1876     Cu2344   2.008       .  S
O1877     Cu2576   1.987       .  S
O1878     Cu1880   1.983   1_545  S
Cu1879     O2568   2.030   1_545  S
Cu1879     O2337   1.994   1_546  S
Cu1879     O2106   1.990       .  S
Cu1879    Cu2808   2.369   1_546  S
Cu1880     O2107   2.009   1_564  S
Cu1880     O2340   2.008       .  S
Cu1880     O2573   1.987   1_554  S
C1881      O2806   1.274       .  A
C1881      C2020   1.473       .  S
C1882      O2805   1.276       .  A
C1882      C1978   1.483       .  S
C1883      O2804   1.279       .  A
C1883      C1995   1.474       .  S
C1884      O2803   1.278       .  A
C1884      C2009   1.481       .  S
C1885      C1887   1.560       .  S
C1885      C1889   1.565       .  S
C1885      C1888   1.548       .  S
C1885      C1955   1.567       .  S
C1886      C1890   1.517       .  S
C1886      C1892   1.518       .  S
C1886      C1891   1.535       .  S
C1886      C1954   1.546       .  S
C1887      C1895   1.389       .  A
C1887      C2818   1.393       .  A
C1888      C1899   1.385       .  A
C1888      C2819   1.389       .  A
C1889      C1903   1.396       .  A
C1889      C2820   1.394       .  A
C1890      C1893   1.366       .  A
C1891      C1897   1.377       .  A
C1892      C1900   1.361       .  A
C1893      H1906   1.082       .  S
N1894      C2821   1.345       .  A
N1894      C1895   1.363       .  A
N1894      C2023   1.432       .  S
C1895      H1896   1.079       .  S
C1897      H1907   1.081       .  S
N1898      C2825   1.356       .  A
N1898      C1899   1.366       .  A
N1898      N1921   1.417       .  S
C1899      H1905   1.081       .  S
C1900      H1902   1.081       .  S
N1901      C2828   1.343       .  A
N1901      C1903   1.369       .  A
N1901      C2006   1.443       .  S
C1903      H1904   1.080       .  S
C1908      C1910   1.555       .  S
C1908      C1912   1.550       .  S
C1908      C1911   1.546       .  S
C1908      C1931   1.566       .  S
C1909      C1913   1.527       .  S
C1909      C1915   1.528       .  S
C1909      C1914   1.536       .  S
C1909      C1932   1.546       .  S
C1910      C1918   1.387       .  A
C1911      C1922   1.384       .  A
C1912      C1926   1.377       .  A
C1913      C2838   1.394       .  A
C1913      C1916   1.370       .  A
C1914      C2839   1.391       .  A
C1914      C1920   1.378       .  A
C1915      C2840   1.387       .  A
C1915      C1923   1.372       .  A
C1916      H1929   1.082       .  S
C1916      N1917   1.346       .  A
N1917      C2846   1.362       .  A
N1917      C1992   1.436       .  S
C1918      H1919   1.077       .  S
C1920      H1930   1.081       .  S
C1920      N1921   1.356       .  A
N1921      C2850   1.366       .  A
C1922      H1928   1.081       .  S
C1923      H1925   1.080       .  S
C1923      N1924   1.359       .  A
N1924      C2854   1.367       .  A
N1924      C1981   1.455       .  S
C1926      H1927   1.075       .  S
C1931      C1933   1.550       .  S
C1931      C1935   1.554       .  S
C1931      C1934   1.554       .  S
C1932      C1936   1.529       .  S
C1932      C1938   1.525       .  S
C1932      C1937   1.531       .  S
C1933      C1941   1.384       .  A
C1933      C1936   1.392       .  A
C1934      C1945   1.388       .  A
C1934      C1937   1.391       .  A
C1935      C1949   1.386       .  A
C1935      C1938   1.393       .  A
C1936      C1939   1.372       .  A
C1937      C1943   1.377       .  A
C1938      C1946   1.369       .  A
C1939      H1952   1.082       .  S
C1939      N1940   1.348       .  A
N1940      C1941   1.363       .  A
N1940      C2051   1.438       .  S
C1941      H1942   1.076       .  S
C1943      H1953   1.081       .  S
C1943      N1944   1.355       .  A
N1944      C1945   1.368       .  A
N1944      N2431   1.418       .  S
C1945      H1951   1.081       .  S
C1946      H1948   1.081       .  S
C1946      N1947   1.351       .  A
N1947      C1949   1.362       .  A
N1947      C2037   1.438       .  S
C1949      H1950   1.082       .  S
C1954      C1956   1.521       .  S
C1954      C1958   1.515       .  S
C1954      C1957   1.534       .  S
C1955      C1959   1.557       .  S
C1955      C1961   1.562       .  S
C1955      C1960   1.551       .  S
C1956      C1964   1.366       .  A
C1956      C1959   1.392       .  A
C1957      C1968   1.377       .  A
C1957      C1960   1.390       .  A
C1958      C1972   1.362       .  A
C1958      C1961   1.394       .  A
C1959      C1962   1.388       .  A
C1960      C1966   1.387       .  A
C1961      C1969   1.389       .  A
C1962      H1975   1.078       .  S
C1962      N1963   1.363       .  A
N1963      C1964   1.345       .  A
N1963      C2062   1.434       .  S
C1964      H1965   1.082       .  S
C1966      H1976   1.081       .  S
C1966      N1967   1.368       .  A
N1967      C1968   1.355       .  A
N1967      N2408   1.418   1_545  S
C1968      H1974   1.081       .  S
C1969      H1971   1.077       .  S
C1969      N1970   1.363       .  A
N1970      C1972   1.343       .  A
N1970      C2079   1.433       .  S
C1972      H1973   1.082       .  S
C1977      C1982   1.399       .  A
C1977      H1984   1.077       .  S
C1978      C2905   1.402       .  A
C1978      C1979   1.406       .  A
C1979      C1980   1.411       .  A
C1979      N1986   1.437       .  S
C1980      C1981   1.418       .  A
C1980      H1985   1.080       .  S
C1981      C2910   1.415       .  A
C1982      N1983   1.437       .  S
N1983      H1987   1.046       .  S
N1983      H1988   1.045       .  S
N1986      H1989   1.046       .  S
N1986      H1990   1.045       .  S
C1991      C1992   1.397       .  A
C1991      C1996   1.403       .  A
C1991      H1998   1.084       .  S
C1992      C2921   1.414       .  A
C1993      C1994   1.400       .  A
C1993      N2000   1.429       .  S
C1994      H1999   1.084       .  S
C1995      C2922   1.401       .  A
C1995      C1996   1.417       .  A
C1996      N1997   1.438       .  S
N1997      H2001   1.046       .  S
N1997      H2002   1.045       .  S
N2000      H2003   1.046       .  S
N2000      H2004   1.038       .  S
C2005      C2010   1.403       .  A
C2005      H2012   1.082       .  S
C2006      C2933   1.407       .  A
C2006      C2007   1.409       .  A
C2007      C2008   1.405       .  A
C2007      N2014   1.433       .  S
C2008      C2009   1.406       .  A
C2008      H2013   1.084       .  S
C2009      C2938   1.414       .  A
C2010      N2011   1.439       .  S
N2011      H2015   1.046       .  S
N2011      H2016   1.040       .  S
N2014      H2017   1.046       .  S
N2014      H2018   1.045       .  S
C2019      C2020   1.401       .  A
C2019      C2024   1.403       .  A
C2019      H2026   1.084       .  S
C2020      C2949   1.414       .  A
C2021      C2022   1.397       .  A
C2021      N2028   1.434       .  S
C2022      H2027   1.084       .  S
C2023      C2950   1.397       .  A
C2023      C2024   1.419       .  A
C2024      N2025   1.436       .  S
N2025      H2957   1.042       .  S
N2025      H2958   1.042       .  S
H2031      N2956   1.044   1_565  S
H2032      N2956   1.046       .  S
C2033      C2034   1.406       .  A
C2033      C2038   1.400       .  A
C2033      H2040   1.084       .  S
C2034      C2035   1.412       .  A
C2035      C2036   1.405       .  A
C2035      N2042   1.432       .  S
C2036      C2037   1.404       .  A
C2036      H2041   1.083       .  S
C2037      C2038   1.407       .  A
C2038      N2039   1.433       .  S
N2039      H2043   1.046       .  S
N2039      H2044   1.046       .  S
N2042      H2045   1.046       .  S
N2042      H2046   1.045       .  S
C2047      C2048   1.402       .  A
C2047      C2052   1.403       .  A
C2047      H2054   1.084       .  S
C2048      C2049   1.419       .  A
C2049      C2050   1.404       .  A
C2049      N2056   1.438       .  S
C2050      C2051   1.398       .  A
C2050      H2055   1.084       .  S
C2051      C2052   1.418       .  A
C2052      N2053   1.437       .  S
N2053      H2057   1.046       .  S
N2053      H2058   1.042       .  S
N2056      H2059   1.041       .  S
N2056      H2060   1.046       .  S
C2061      C2062   1.402       .  A
C2061      C2066   1.407       .  A
C2061      H2068   1.083       .  S
C2062      C2063   1.407       .  A
C2063      C2064   1.402       .  A
C2063      N2070   1.438       .  S
C2064      C2065   1.406       .  A
C2064      H2069   1.084       .  S
C2065      C2066   1.410       .  A
C2066      N2067   1.437       .  S
N2067      H2071   1.046       .  S
N2067      H2072   1.045       .  S
N2070      H2073   1.045       .  S
N2070      H2074   1.046       .  S
C2075      C2076   1.403       .  A
C2075      C2080   1.407       .  A
C2075      H2082   1.084       .  S
C2076      C2077   1.415       .  A
C2077      C2078   1.397       .  A
C2077      N2084   1.433       .  S
C2078      C2079   1.398       .  A
C2078      H2083   1.084       .  S
C2079      C2080   1.410       .  A
C2080      N2081   1.436       .  S
N2081      H2085   1.045       .  S
N2081      H2086   1.046       .  S
N2084      H2087   1.045       .  S
N2084      H2088   1.046       .  S
O2089      C2099   1.280       .  A
O2090      C2100   1.278       .  A
O2090     Cu2097   2.000       .  S
O2091      C2101   1.275       .  A
O2092      C2102   1.277       .  A
O2092     Cu2097   2.002       .  S
O2093      C2102   1.279       .  A
O2094      C2101   1.280       .  A
O2094     Cu2098   2.010       .  S
O2095      C2100   1.276       .  A
O2096      C2099   1.275       .  A
O2096     Cu2098   1.990       .  S
C2099      C2266   1.481       .  S
C2100      C2308   1.474       .  S
C2101      C2297   1.474       .  S
C2102      C2280   1.480       .  S
O2103      C2113   1.280       .  A
O2103     Cu2111   2.018       .  S
O2104      C2114   1.281       .  A
O2104     Cu2343   2.030       .  S
O2105      C2115   1.276       .  A
O2105     Cu2575   1.994       .  S
O2106      C2116   1.276       .  A
O2108     Cu2576   2.008       .  S
O2109     Cu2344   1.987   1_556  S
O2110     Cu2112   1.983   1_545  S
Cu2111     O2336   2.030   1_545  S
Cu2111     O2569   1.994   1_545  S
Cu2111    Cu3040   2.369   1_545  S
Cu2112     O2572   2.008       .  S
Cu2112     O2341   1.987       .  S
C2113      O3038   1.274       .  A
C2113      C2252   1.473       .  S
C2114      O3037   1.276       .  A
C2114      C2210   1.483       .  S
C2115      O3036   1.279       .  A
C2115      C2227   1.474       .  S
C2116      O3035   1.278       .  A
C2116      C2241   1.481       .  S
C2117      C2119   1.560       .  S
C2117      C2121   1.565       .  S
C2117      C2120   1.548       .  S
C2117      C2187   1.567       .  S
C2118      C2122   1.517       .  S
C2118      C2124   1.518       .  S
C2118      C2123   1.535       .  S
C2118      C2186   1.546       .  S
C2119      C2127   1.389       .  A
C2119      C3050   1.393       .  A
C2120      C2131   1.385       .  A
C2120      C3051   1.389       .  A
C2121      C2135   1.396       .  A
C2121      C3052   1.394       .  A
C2122      C2125   1.366       .  A
C2123      C2129   1.377       .  A
C2124      C2132   1.361       .  A
C2125      H2138   1.082       .  S
N2126      C3053   1.345       .  A
N2126      C2127   1.363       .  A
N2126      C2255   1.432       .  S
C2127      H2128   1.079       .  S
C2129      H2139   1.081       .  S
N2130      C3057   1.356       .  A
N2130      C2131   1.366       .  A
N2130      N2153   1.417       .  S
C2131      H2137   1.081       .  S
C2132      H2134   1.081       .  S
N2133      C3060   1.343       .  A
N2133      C2135   1.369       .  A
N2133      C2238   1.443       .  S
C2135      H2136   1.080       .  S
C2140      C2142   1.555       .  S
C2140      C2144   1.550       .  S
C2140      C2143   1.546       .  S
C2140      C2163   1.566       .  S
C2141      C2145   1.527       .  S
C2141      C2147   1.528       .  S
C2141      C2146   1.536       .  S
C2141      C2164   1.546       .  S
C2142      C2150   1.387       .  A
C2143      C2154   1.384       .  A
C2144      C2158   1.377       .  A
C2145      C3070   1.394       .  A
C2145      C2148   1.370       .  A
C2146      C3071   1.391       .  A
C2146      C2152   1.378       .  A
C2147      C3072   1.387       .  A
C2147      C2155   1.372       .  A
C2148      H2161   1.082       .  S
C2148      N2149   1.346       .  A
N2149      C3078   1.362       .  A
N2149      C2224   1.436       .  S
C2150      H2151   1.077       .  S
C2152      H2162   1.081       .  S
C2152      N2153   1.356       .  A
N2153      C3082   1.366       .  A
C2154      H2160   1.081       .  S
C2155      H2157   1.080       .  S
C2155      N2156   1.359       .  A
N2156      C3086   1.367       .  A
N2156      C2213   1.455       .  S
C2158      H2159   1.075       .  S
C2163      C2165   1.550       .  S
C2163      C2167   1.554       .  S
C2163      C2166   1.554       .  S
C2164      C2168   1.529       .  S
C2164      C2170   1.525       .  S
C2164      C2169   1.531       .  S
C2165      C2173   1.384       .  A
C2165      C2168   1.392       .  A
C2166      C2177   1.388       .  A
C2166      C2169   1.391       .  A
C2167      C2181   1.386       .  A
C2167      C2170   1.393       .  A
C2168      C2171   1.372       .  A
C2169      C2175   1.377       .  A
C2170      C2178   1.369       .  A
C2171      H2184   1.082       .  S
C2171      N2172   1.348       .  A
N2172      C2173   1.363       .  A
N2172      C2283   1.438       .  S
C2173      H2174   1.076       .  S
C2175      H2185   1.081       .  S
C2175      N2176   1.355       .  A
N2176      C2177   1.368       .  A
N2176      N2663   1.418       .  S
C2177      H2183   1.081       .  S
C2178      H2180   1.081       .  S
C2178      N2179   1.351       .  A
N2179      C2181   1.362       .  A
N2179      C2269   1.438       .  S
C2181      H2182   1.082       .  S
C2186      C2188   1.521       .  S
C2186      C2190   1.515       .  S
C2186      C2189   1.534       .  S
C2187      C2191   1.557       .  S
C2187      C2193   1.562       .  S
C2187      C2192   1.551       .  S
C2188      C2196   1.366       .  A
C2188      C2191   1.392       .  A
C2189      C2200   1.377       .  A
C2189      C2192   1.390       .  A
C2190      C2204   1.362       .  A
C2190      C2193   1.394       .  A
C2191      C2194   1.388       .  A
C2192      C2198   1.387       .  A
C2193      C2201   1.389       .  A
C2194      H2207   1.078       .  S
C2194      N2195   1.363       .  A
N2195      C2196   1.345       .  A
N2195      C2294   1.434       .  S
C2196      H2197   1.082       .  S
C2198      H2208   1.081       .  S
C2198      N2199   1.368       .  A
N2199      C2200   1.355       .  A
N2199      N2640   1.418   1_545  S
C2200      H2206   1.081       .  S
C2201      H2203   1.077       .  S
C2201      N2202   1.363       .  A
N2202      C2204   1.343       .  A
N2202      C2311   1.433       .  S
C2204      H2205   1.082       .  S
C2209      C2214   1.399       .  A
C2209      H2216   1.077       .  S
C2210      C3137   1.402       .  A
C2210      C2211   1.406       .  A
C2211      C2212   1.411       .  A
C2211      N2218   1.437       .  S
C2212      C2213   1.418       .  A
C2212      H2217   1.080       .  S
C2213      C3142   1.415       .  A
C2214      N2215   1.437       .  S
N2215      H2219   1.046       .  S
N2215      H2220   1.045       .  S
N2218      H2221   1.046       .  S
N2218      H2222   1.045       .  S
C2223      C2224   1.397       .  A
C2223      C2228   1.403       .  A
C2223      H2230   1.084       .  S
C2224      C3153   1.414       .  A
C2225      C2226   1.400       .  A
C2225      N2232   1.429       .  S
C2226      H2231   1.084       .  S
C2227      C3154   1.401       .  A
C2227      C2228   1.417       .  A
C2228      N2229   1.438       .  S
N2229      H2233   1.046       .  S
N2229      H2234   1.045       .  S
N2232      H2235   1.046       .  S
N2232      H2236   1.038       .  S
C2237      C2242   1.403       .  A
C2237      H2244   1.082       .  S
C2238      C3165   1.407       .  A
C2238      C2239   1.409       .  A
C2239      C2240   1.405       .  A
C2239      N2246   1.433       .  S
C2240      C2241   1.406       .  A
C2240      H2245   1.084       .  S
C2241      C3170   1.414       .  A
C2242      N2243   1.439       .  S
N2243      H2247   1.046       .  S
N2243      H2248   1.040       .  S
N2246      H2249   1.046       .  S
N2246      H2250   1.045       .  S
C2251      C2252   1.401       .  A
C2251      C2256   1.403       .  A
C2251      H2258   1.084       .  S
C2252      C3181   1.414       .  A
C2253      C2254   1.397       .  A
C2253      N2260   1.434       .  S
C2254      H2259   1.084       .  S
C2255      C3182   1.397       .  A
C2255      C2256   1.419       .  A
C2256      N2257   1.436       .  S
N2257      H3189   1.042       .  S
N2257      H3190   1.042       .  S
H2263      N3188   1.044   1_565  S
H2264      N3188   1.046       .  S
C2265      C2266   1.406       .  A
C2265      C2270   1.400       .  A
C2265      H2272   1.084       .  S
C2266      C2267   1.412       .  A
C2267      C2268   1.405       .  A
C2267      N2274   1.432       .  S
C2268      C2269   1.404       .  A
C2268      H2273   1.083       .  S
C2269      C2270   1.407       .  A
C2270      N2271   1.433       .  S
N2271      H2275   1.046       .  S
N2271      H2276   1.046       .  S
N2274      H2277   1.046       .  S
N2274      H2278   1.045       .  S
C2279      C2280   1.402       .  A
C2279      C2284   1.403       .  A
C2279      H2286   1.084       .  S
C2280      C2281   1.419       .  A
C2281      C2282   1.404       .  A
C2281      N2288   1.438       .  S
C2282      C2283   1.398       .  A
C2282      H2287   1.084       .  S
C2283      C2284   1.418       .  A
C2284      N2285   1.437       .  S
N2285      H2289   1.046       .  S
N2285      H2290   1.042       .  S
N2288      H2291   1.041       .  S
N2288      H2292   1.046       .  S
C2293      C2294   1.402       .  A
C2293      C2298   1.407       .  A
C2293      H2300   1.083       .  S
C2294      C2295   1.407       .  A
C2295      C2296   1.402       .  A
C2295      N2302   1.438       .  S
C2296      C2297   1.406       .  A
C2296      H2301   1.084       .  S
C2297      C2298   1.410       .  A
C2298      N2299   1.437       .  S
N2299      H2303   1.046       .  S
N2299      H2304   1.045       .  S
N2302      H2305   1.045       .  S
N2302      H2306   1.046       .  S
C2307      C2308   1.403       .  A
C2307      C2312   1.407       .  A
C2307      H2314   1.084       .  S
C2308      C2309   1.415       .  A
C2309      C2310   1.397       .  A
C2309      N2316   1.433       .  S
C2310      C2311   1.398       .  A
C2310      H2315   1.084       .  S
C2311      C2312   1.410       .  A
C2312      N2313   1.436       .  S
N2313      H2317   1.045       .  S
N2313      H2318   1.046       .  S
N2316      H2319   1.045       .  S
N2316      H2320   1.046       .  S
O2321      C2331   1.280       .  A
O2321     Cu2561   2.012       .  S
O2322      C2332   1.278       .  A
O2322     Cu2329   2.000       .  S
O2323      C2333   1.275       .  A
O2323     Cu2561   1.989       .  S
O2324      C2334   1.277       .  A
O2324     Cu2329   2.002       .  S
O2325      C2334   1.279       .  A
O2325     Cu2562   2.011   1_554  S
O2326      C2333   1.280       .  A
O2326     Cu2330   2.010       .  S
O2327      C2332   1.276       .  A
O2327     Cu2562   1.995   1_554  S
O2328      C2331   1.275       .  A
O2328     Cu2330   1.990       .  S
Cu2329     O2553   2.012   1_554  S
Cu2329     O2555   1.989   1_554  S
Cu2329    Cu2562   2.370   1_554  S
Cu2330     O2557   2.011       .  S
Cu2330     O2559   1.995       .  S
Cu2330    Cu2561   2.370       .  S
C2331      C2498   1.481       .  S
C2332      C2540   1.474       .  S
C2333      C2529   1.474       .  S
C2334      C2512   1.480       .  S
O2335      C2345   1.280       .  A
O2335     Cu2343   2.018   1_554  S
O2336      C2346   1.281       .  A
O2337      C2347   1.276       .  A
O2338      C2348   1.276       .  A
O2338     Cu2575   1.990       .  S
O2339     Cu2576   2.009       .  S
O2342     Cu2344   1.983       .  S
Cu2343     O2570   1.990       .  S
Cu2343    Cu3272   2.369   1_556  S
Cu2344     O2571   2.009   1_554  S
C2345      O3270   1.274       .  A
C2345      C2484   1.473       .  S
C2346      O3269   1.276       .  A
C2346      C2442   1.483       .  S
C2347      O3268   1.279       .  A
C2347      C2459   1.474       .  S
C2348      O3267   1.278       .  A
C2348      C2473   1.481       .  S
C2349      C2351   1.560       .  S
C2349      C2353   1.565       .  S
C2349      C2352   1.548       .  S
C2349      C2419   1.567       .  S
C2350      C2354   1.517       .  S
C2350      C2356   1.518       .  S
C2350      C2355   1.535       .  S
C2350      C2418   1.546       .  S
C2351      C2359   1.389       .  A
C2351      C3282   1.393       .  A
C2352      C2363   1.385       .  A
C2352      C3283   1.389       .  A
C2353      C2367   1.396       .  A
C2353      C3284   1.394       .  A
C2354      C2357   1.366       .  A
C2355      C2361   1.377       .  A
C2356      C2364   1.361       .  A
C2357      H2370   1.082       .  S
N2358      C3285   1.345       .  A
N2358      C2359   1.363       .  A
N2358      C2487   1.432       .  S
C2359      H2360   1.079       .  S
C2361      H2371   1.081       .  S
N2362      C3289   1.356       .  A
N2362      C2363   1.366       .  A
N2362      N2385   1.417       .  S
C2363      H2369   1.081       .  S
C2364      H2366   1.081       .  S
N2365      C3292   1.343       .  A
N2365      C2367   1.369       .  A
N2365      C2470   1.443       .  S
C2367      H2368   1.080       .  S
C2372      C2374   1.555       .  S
C2372      C2376   1.550       .  S
C2372      C2375   1.546       .  S
C2372      C2395   1.566       .  S
C2373      C2377   1.527       .  S
C2373      C2379   1.528       .  S
C2373      C2378   1.536       .  S
C2373      C2396   1.546       .  S
C2374      C2382   1.387       .  A
C2375      C2386   1.384       .  A
C2376      C2390   1.377       .  A
C2377      C3302   1.394       .  A
C2377      C2380   1.370       .  A
C2378      C3303   1.391       .  A
C2378      C2384   1.378       .  A
C2379      C3304   1.387       .  A
C2379      C2387   1.372       .  A
C2380      H2393   1.082       .  S
C2380      N2381   1.346       .  A
N2381      C3310   1.362       .  A
N2381      C2456   1.436       .  S
C2382      H2383   1.077       .  S
C2384      H2394   1.081       .  S
C2384      N2385   1.356       .  A
N2385      C3314   1.366       .  A
C2386      H2392   1.081       .  S
C2387      H2389   1.080       .  S
C2387      N2388   1.359       .  A
N2388      C3318   1.367       .  A
N2388      C2445   1.455       .  S
C2390      H2391   1.075       .  S
C2395      C2397   1.550       .  S
C2395      C2399   1.554       .  S
C2395      C2398   1.554       .  S
C2396      C2400   1.529       .  S
C2396      C2402   1.525       .  S
C2396      C2401   1.531       .  S
C2397      C2405   1.384       .  A
C2397      C2400   1.392       .  A
C2398      C2409   1.388       .  A
C2398      C2401   1.391       .  A
C2399      C2413   1.386       .  A
C2399      C2402   1.393       .  A
C2400      C2403   1.372       .  A
C2401      C2407   1.377       .  A
C2402      C2410   1.369       .  A
C2403      H2416   1.082       .  S
C2403      N2404   1.348       .  A
N2404      C2405   1.363       .  A
N2404      C2515   1.438       .  S
C2405      H2406   1.076       .  S
C2407      H2417   1.081       .  S
C2407      N2408   1.355       .  A
N2408      C2409   1.368       .  A
C2409      H2415   1.081       .  S
C2410      H2412   1.081       .  S
C2410      N2411   1.351       .  A
N2411      C2413   1.362       .  A
N2411      C2501   1.438       .  S
C2413      H2414   1.082       .  S
C2418      C2420   1.521       .  S
C2418      C2422   1.515       .  S
C2418      C2421   1.534       .  S
C2419      C2423   1.557       .  S
C2419      C2425   1.562       .  S
C2419      C2424   1.551       .  S
C2420      C2428   1.366       .  A
C2420      C2423   1.392       .  A
C2421      C2432   1.377       .  A
C2421      C2424   1.390       .  A
C2422      C2436   1.362       .  A
C2422      C2425   1.394       .  A
C2423      C2426   1.388       .  A
C2424      C2430   1.387       .  A
C2425      C2433   1.389       .  A
C2426      H2439   1.078       .  S
C2426      N2427   1.363       .  A
N2427      C2428   1.345       .  A
N2427      C2526   1.434       .  S
C2428      H2429   1.082       .  S
C2430      H2440   1.081       .  S
C2430      N2431   1.368       .  A
N2431      C2432   1.355       .  A
C2432      H2438   1.081       .  S
C2433      H2435   1.077       .  S
C2433      N2434   1.363       .  A
N2434      C2436   1.343       .  A
N2434      C2543   1.433       .  S
C2436      H2437   1.082       .  S
C2441      C2446   1.399       .  A
C2441      H2448   1.077       .  S
C2442      C3369   1.402       .  A
C2442      C2443   1.406       .  A
C2443      C2444   1.411       .  A
C2443      N2450   1.437       .  S
C2444      C2445   1.418       .  A
C2444      H2449   1.080       .  S
C2445      C3374   1.415       .  A
C2446      N2447   1.437       .  S
N2447      H2451   1.046       .  S
N2447      H2452   1.045       .  S
N2450      H2453   1.046       .  S
N2450      H2454   1.045       .  S
C2455      C2456   1.397       .  A
C2455      C2460   1.403       .  A
C2455      H2462   1.084       .  S
C2456      C3385   1.414       .  A
C2457      C2458   1.400       .  A
C2457      N2464   1.429       .  S
C2458      H2463   1.084       .  S
C2459      C3386   1.401       .  A
C2459      C2460   1.417       .  A
C2460      N2461   1.438   1_565  S
N2461      H2465   1.046       .  S
N2461      H2466   1.045   1_545  S
N2464      H2467   1.046       .  S
N2464      H2468   1.038       .  S
C2469      C2474   1.403       .  A
C2469      H2476   1.082       .  S
C2470      C3397   1.407       .  A
C2470      C2471   1.409       .  A
C2471      C2472   1.405       .  A
C2471      N2478   1.433       .  S
C2472      C2473   1.406       .  A
C2472      H2477   1.084       .  S
C2473      C3402   1.414       .  A
C2474      N2475   1.439       .  S
N2475      H2479   1.046       .  S
N2475      H2480   1.040       .  S
N2478      H2481   1.046       .  S
N2478      H2482   1.045       .  S
C2483      C2484   1.401       .  A
C2483      C2488   1.403       .  A
C2483      H2490   1.084       .  S
C2484      C3413   1.414       .  A
C2485      C2486   1.397       .  A
C2485      N2492   1.434       .  S
C2486      H2491   1.084       .  S
C2487      C3414   1.397       .  A
C2487      C2488   1.419       .  A
C2488      N2489   1.436       .  S
N2489      H3421   1.042       .  S
N2489      H3422   1.042       .  S
H2495      N3420   1.044       .  S
H2496      N3420   1.046       .  S
C2497      C2498   1.406       .  A
C2497      C2502   1.400       .  A
C2497      H2504   1.084       .  S
C2498      C2499   1.412       .  A
C2499      C2500   1.405       .  A
C2499      N2506   1.432       .  S
C2500      C2501   1.404       .  A
C2500      H2505   1.083       .  S
C2501      C2502   1.407       .  A
C2502      N2503   1.433       .  S
N2503      H2507   1.046       .  S
N2503      H2508   1.046       .  S
N2506      H2509   1.046       .  S
N2506      H2510   1.045       .  S
C2511      C2512   1.402       .  A
C2511      C2516   1.403       .  A
C2511      H2518   1.084       .  S
C2512      C2513   1.419       .  A
C2513      C2514   1.404       .  A
C2513      N2520   1.438       .  S
C2514      C2515   1.398       .  A
C2514      H2519   1.084       .  S
C2515      C2516   1.418       .  A
C2516      N2517   1.437       .  S
N2517      H2521   1.046       .  S
N2517      H2522   1.042       .  S
N2520      H2523   1.041       .  S
N2520      H2524   1.046       .  S
C2525      C2526   1.402       .  A
C2525      C2530   1.407       .  A
C2525      H2532   1.083       .  S
C2526      C2527   1.407       .  A
C2527      C2528   1.402       .  A
C2527      N2534   1.438       .  S
C2528      C2529   1.406       .  A
C2528      H2533   1.084       .  S
C2529      C2530   1.410       .  A
C2530      N2531   1.437       .  S
N2531      H2535   1.046       .  S
N2531      H2536   1.045       .  S
N2534      H2537   1.045       .  S
N2534      H2538   1.046       .  S
C2539      C2540   1.403       .  A
C2539      C2544   1.407       .  A
C2539      H2546   1.084       .  S
C2540      C2541   1.415       .  A
C2541      C2542   1.397       .  A
C2541      N2548   1.433       .  S
C2542      C2543   1.398       .  A
C2542      H2547   1.084       .  S
C2543      C2544   1.410       .  A
C2544      N2545   1.436       .  S
N2545      H2549   1.045       .  S
N2545      H2550   1.046       .  S
N2548      H2551   1.045       .  S
N2548      H2552   1.046       .  S
O2553      C2563   1.280       .  A
O2554      C2564   1.278       .  A
O2554     Cu2561   2.000       .  S
O2555      C2565   1.275       .  A
O2556      C2566   1.277       .  A
O2556     Cu2561   2.002       .  S
O2557      C2566   1.279       .  A
O2558      C2565   1.280       .  A
O2558     Cu2562   2.010       .  S
O2559      C2564   1.276       .  A
O2560      C2563   1.275       .  A
O2560     Cu2562   1.990       .  S
C2563      C2730   1.481       .  S
C2564      C2772   1.474       .  S
C2565      C2761   1.474       .  S
C2566      C2744   1.480       .  S
O2567      C2577   1.280       .  A
O2567     Cu2575   2.018       .  S
O2568      C2578   1.281       .  A
O2569      C2579   1.276       .  A
O2570      C2580   1.276       .  A
O2574     Cu2576   1.983       .  S
Cu2575    Cu3504   2.369       .  S
C2577      O3502   1.274       .  A
C2577      C2716   1.473       .  S
C2578      O3501   1.276       .  A
C2578      C2674   1.483       .  S
C2579      O3500   1.279       .  A
C2579      C2691   1.474       .  S
C2580      O3499   1.278       .  A
C2580      C2705   1.481       .  S
C2581      C2583   1.560       .  S
C2581      C2585   1.565       .  S
C2581      C2584   1.548       .  S
C2581      C2651   1.567       .  S
C2582      C2586   1.517       .  S
C2582      C2588   1.518       .  S
C2582      C2587   1.535       .  S
C2582      C2650   1.546       .  S
C2583      C2591   1.389       .  A
C2583      C3514   1.393       .  A
C2584      C2595   1.385       .  A
C2584      C3515   1.389       .  A
C2585      C2599   1.396       .  A
C2585      C3516   1.394       .  A
C2586      C2589   1.366       .  A
C2587      C2593   1.377       .  A
C2588      C2596   1.361       .  A
C2589      H2602   1.082       .  S
N2590      C3517   1.345       .  A
N2590      C2591   1.363       .  A
N2590      C2719   1.432       .  S
C2591      H2592   1.079       .  S
C2593      H2603   1.081       .  S
N2594      C3521   1.356       .  A
N2594      C2595   1.366       .  A
N2594      N2617   1.417       .  S
C2595      H2601   1.081       .  S
C2596      H2598   1.081       .  S
N2597      C3524   1.343       .  A
N2597      C2599   1.369       .  A
N2597      C2702   1.443       .  S
C2599      H2600   1.080       .  S
C2604      C2606   1.555       .  S
C2604      C2608   1.550       .  S
C2604      C2607   1.546       .  S
C2604      C2627   1.566       .  S
C2605      C2609   1.527       .  S
C2605      C2611   1.528       .  S
C2605      C2610   1.536       .  S
C2605      C2628   1.546       .  S
C2606      C2614   1.387       .  A
C2607      C2618   1.384       .  A
C2608      C2622   1.377       .  A
C2609      C3534   1.394       .  A
C2609      C2612   1.370       .  A
C2610      C3535   1.391       .  A
C2610      C2616   1.378       .  A
C2611      C3536   1.387       .  A
C2611      C2619   1.372       .  A
C2612      H2625   1.082       .  S
C2612      N2613   1.346       .  A
N2613      C3542   1.362       .  A
N2613      C2688   1.436       .  S
C2614      H2615   1.077       .  S
C2616      H2626   1.081       .  S
C2616      N2617   1.356       .  A
N2617      C3546   1.366       .  A
C2618      H2624   1.081       .  S
C2619      H2621   1.080       .  S
C2619      N2620   1.359       .  A
N2620      C3550   1.367       .  A
N2620      C2677   1.455       .  S
C2622      H2623   1.075       .  S
C2627      C2629   1.550       .  S
C2627      C2631   1.554       .  S
C2627      C2630   1.554       .  S
C2628      C2632   1.529       .  S
C2628      C2634   1.525       .  S
C2628      C2633   1.531       .  S
C2629      C2637   1.384       .  A
C2629      C2632   1.392       .  A
C2630      C2641   1.388       .  A
C2630      C2633   1.391       .  A
C2631      C2645   1.386       .  A
C2631      C2634   1.393       .  A
C2632      C2635   1.372       .  A
C2633      C2639   1.377       .  A
C2634      C2642   1.369       .  A
C2635      H2648   1.082       .  S
C2635      N2636   1.348       .  A
N2636      C2637   1.363       .  A
N2636      C2747   1.438       .  S
C2637      H2638   1.076       .  S
C2639      H2649   1.081       .  S
C2639      N2640   1.355       .  A
N2640      C2641   1.368       .  A
C2641      H2647   1.081       .  S
C2642      H2644   1.081       .  S
C2642      N2643   1.351       .  A
N2643      C2645   1.362       .  A
N2643      C2733   1.438       .  S
C2645      H2646   1.082       .  S
C2650      C2652   1.521       .  S
C2650      C2654   1.515       .  S
C2650      C2653   1.534       .  S
C2651      C2655   1.557       .  S
C2651      C2657   1.562       .  S
C2651      C2656   1.551       .  S
C2652      C2660   1.366       .  A
C2652      C2655   1.392       .  A
C2653      C2664   1.377       .  A
C2653      C2656   1.390       .  A
C2654      C2668   1.362       .  A
C2654      C2657   1.394       .  A
C2655      C2658   1.388       .  A
C2656      C2662   1.387       .  A
C2657      C2665   1.389       .  A
C2658      H2671   1.078       .  S
C2658      N2659   1.363       .  A
N2659      C2660   1.345       .  A
N2659      C2758   1.434       .  S
C2660      H2661   1.082       .  S
C2662      H2672   1.081       .  S
C2662      N2663   1.368       .  A
N2663      C2664   1.355       .  A
C2664      H2670   1.081       .  S
C2665      H2667   1.077       .  S
C2665      N2666   1.363       .  A
N2666      C2668   1.343       .  A
N2666      C2775   1.433       .  S
C2668      H2669   1.082       .  S
C2673      C2678   1.399       .  A
C2673      H2680   1.077       .  S
C2674      C3601   1.402       .  A
C2674      C2675   1.406       .  A
C2675      C2676   1.411       .  A
C2675      N2682   1.437       .  S
C2676      C2677   1.418       .  A
C2676      H2681   1.080       .  S
C2677      C3606   1.415       .  A
C2678      N2679   1.437       .  S
N2679      H2683   1.046       .  S
N2679      H2684   1.045       .  S
N2682      H2685   1.046       .  S
N2682      H2686   1.045       .  S
C2687      C2688   1.397       .  A
C2687      C2692   1.403       .  A
C2687      H2694   1.084       .  S
C2688      C3617   1.414       .  A
C2689      C2690   1.400       .  A
C2689      N2696   1.429       .  S
C2690      H2695   1.084       .  S
C2691      C3618   1.401       .  A
C2691      C2692   1.417       .  A
C2692      N2693   1.438   1_565  S
N2693      H2697   1.046       .  S
N2693      H2698   1.045   1_545  S
N2696      H2699   1.046       .  S
N2696      H2700   1.038       .  S
C2701      C2706   1.403       .  A
C2701      H2708   1.082       .  S
C2702      C3629   1.407       .  A
C2702      C2703   1.409       .  A
C2703      C2704   1.405       .  A
C2703      N2710   1.433       .  S
C2704      C2705   1.406       .  A
C2704      H2709   1.084       .  S
C2705      C3634   1.414       .  A
C2706      N2707   1.439       .  S
N2707      H2711   1.046       .  S
N2707      H2712   1.040       .  S
N2710      H2713   1.046       .  S
N2710      H2714   1.045       .  S
C2715      C2716   1.401       .  A
C2715      C2720   1.403       .  A
C2715      H2722   1.084       .  S
C2716      C3645   1.414       .  A
C2717      C2718   1.397       .  A
C2717      N2724   1.434       .  S
C2718      H2723   1.084       .  S
C2719      C3646   1.397       .  A
C2719      C2720   1.419       .  A
C2720      N2721   1.436       .  S
N2721      H3653   1.042       .  S
N2721      H3654   1.042       .  S
H2727      N3652   1.044       .  S
H2728      N3652   1.046       .  S
C2729      C2730   1.406       .  A
C2729      C2734   1.400       .  A
C2729      H2736   1.084       .  S
C2730      C2731   1.412       .  A
C2731      C2732   1.405       .  A
C2731      N2738   1.432       .  S
C2732      C2733   1.404       .  A
C2732      H2737   1.083       .  S
C2733      C2734   1.407       .  A
C2734      N2735   1.433       .  S
N2735      H2739   1.046       .  S
N2735      H2740   1.046       .  S
N2738      H2741   1.046       .  S
N2738      H2742   1.045       .  S
C2743      C2744   1.402       .  A
C2743      C2748   1.403       .  A
C2743      H2750   1.084       .  S
C2744      C2745   1.419       .  A
C2745      C2746   1.404       .  A
C2745      N2752   1.438       .  S
C2746      C2747   1.398       .  A
C2746      H2751   1.084       .  S
C2747      C2748   1.418       .  A
C2748      N2749   1.437       .  S
N2749      H2753   1.046       .  S
N2749      H2754   1.042       .  S
N2752      H2755   1.041       .  S
N2752      H2756   1.046       .  S
C2757      C2758   1.402       .  A
C2757      C2762   1.407       .  A
C2757      H2764   1.083       .  S
C2758      C2759   1.407       .  A
C2759      C2760   1.402       .  A
C2759      N2766   1.438       .  S
C2760      C2761   1.406       .  A
C2760      H2765   1.084       .  S
C2761      C2762   1.410       .  A
C2762      N2763   1.437       .  S
N2763      H2767   1.046       .  S
N2763      H2768   1.045       .  S
N2766      H2769   1.045       .  S
N2766      H2770   1.046       .  S
C2771      C2772   1.403       .  A
C2771      C2776   1.407       .  A
C2771      H2778   1.084       .  S
C2772      C2773   1.415       .  A
C2773      C2774   1.397       .  A
C2773      N2780   1.433       .  S
C2774      C2775   1.398       .  A
C2774      H2779   1.084       .  S
C2775      C2776   1.410       .  A
C2776      N2777   1.436       .  S
N2777      H2781   1.045       .  S
N2777      H2782   1.046       .  S
N2780      H2783   1.045       .  S
N2780      H2784   1.046       .  S
O2785      C2795   1.280       .  A
O2785     Cu3025   2.012       .  S
O2786      C2796   1.278       .  A
O2786     Cu2793   2.000       .  S
O2787      C2797   1.275       .  A
O2787     Cu3025   1.989       .  S
O2788      C2798   1.277       .  A
O2788     Cu2793   2.002       .  S
O2789      C2798   1.279       .  A
O2789     Cu3026   2.011   1_554  S
O2790      C2797   1.280       .  A
O2790     Cu2794   2.010       .  S
O2791      C2796   1.276       .  A
O2791     Cu3026   1.995   1_554  S
O2792      C2795   1.275       .  A
O2792     Cu2794   1.990       .  S
Cu2793     O3017   2.012   1_554  S
Cu2793     O3019   1.989   1_554  S
Cu2793    Cu3026   2.370   1_554  S
Cu2794     O3021   2.011       .  S
Cu2794     O3023   1.995       .  S
Cu2794    Cu3025   2.370       .  S
C2795      C2962   1.481       .  S
C2796      C3004   1.474       .  S
C2797      C2993   1.474       .  S
C2798      C2976   1.480       .  S
O2799      C2809   1.280   1_655  A
O2799     Cu2807   2.018   1_554  S
O2800      C2810   1.281       .  A
O2800     Cu3503   2.030       .  S
O2801      C2811   1.276       .  A
O2801     Cu3271   1.994   1_554  S
O2802      C2812   1.276   1_655  A
O2802     Cu3039   1.990       .  S
O2803     Cu3040   2.009   1_545  S
O2804     Cu3272   2.008       .  S
O2805     Cu3504   1.987       .  S
O2806     Cu2808   1.983   1_545  S
Cu2807     O3496   2.030   1_545  S
Cu2807     O3265   1.994   1_546  S
Cu2807     O3034   1.990       .  S
Cu2808     O3035   2.009   1_564  S
Cu2808     O3268   2.008       .  S
Cu2808     O3501   1.987   1_554  S
C2809      C2948   1.473       .  S
C2810      C2906   1.483       .  S
C2811      C2923   1.474       .  S
C2812      C2937   1.481       .  S
C2813      C2815   1.560       .  S
C2813      C2817   1.565       .  S
C2813      C2816   1.548       .  S
C2813      C2883   1.567       .  S
C2814      C2818   1.517       .  S
C2814      C2820   1.518       .  S
C2814      C2819   1.535       .  S
C2814      C2882   1.546       .  S
C2815      C2823   1.389       .  A
C2816      C2827   1.385       .  A
C2817      C2831   1.396       .  A
C2818      C2821   1.366       .  A
C2819      C2825   1.377       .  A
C2820      C2828   1.361       .  A
C2821      H2834   1.082       .  S
N2822      C2823   1.363   1_455  A
N2822      C2951   1.432       .  S
C2823      H2824   1.079       .  S
C2825      H2835   1.081       .  S
N2826      C2827   1.366       .  A
N2826      N2849   1.417       .  S
C2827      H2833   1.081       .  S
C2828      H2830   1.081       .  S
N2829      C2831   1.369   1_455  A
N2829      C2934   1.443       .  S
C2831      H2832   1.080       .  S
C2836      C2838   1.555       .  S
C2836      C2840   1.550       .  S
C2836      C2839   1.546       .  S
C2836      C2859   1.566       .  S
C2837      C2841   1.527       .  S
C2837      C2843   1.528       .  S
C2837      C2842   1.536       .  S
C2837      C2860   1.546       .  S
C2838      C2846   1.387       .  A
C2839      C2850   1.384       .  A
C2840      C2854   1.377       .  A
C2841      C2844   1.370       .  A
C2842      C2848   1.378       .  A
C2843      C2851   1.372       .  A
C2844      H2857   1.082       .  S
C2844      N2845   1.346       .  A
N2845      C2920   1.436       .  S
C2846      H2847   1.077       .  S
C2848      H2858   1.081       .  S
C2848      N2849   1.356       .  A
C2850      H2856   1.081       .  S
C2851      H2853   1.080       .  S
C2851      N2852   1.359       .  A
N2852      C2909   1.455       .  S
C2854      H2855   1.075       .  S
C2859      C2861   1.550       .  S
C2859      C2863   1.554       .  S
C2859      C2862   1.554       .  S
C2860      C2864   1.529       .  S
C2860      C2866   1.525       .  S
C2860      C2865   1.531       .  S
C2861      C2869   1.384       .  A
C2861      C2864   1.392       .  A
C2862      C2873   1.388       .  A
C2862      C2865   1.391       .  A
C2863      C2877   1.386       .  A
C2863      C2866   1.393       .  A
C2864      C2867   1.372       .  A
C2865      C2871   1.377       .  A
C2866      C2874   1.369       .  A
C2867      H2880   1.082       .  S
C2867      N2868   1.348       .  A
N2868      C2869   1.363       .  A
N2868      C2979   1.438       .  S
C2869      H2870   1.076       .  S
C2871      H2881   1.081       .  S
C2871      N2872   1.355       .  A
N2872      C2873   1.368       .  A
N2872      N3359   1.418       .  S
C2873      H2879   1.081       .  S
C2874      H2876   1.081       .  S
C2874      N2875   1.351       .  A
N2875      C2877   1.362       .  A
N2875      C2965   1.438       .  S
C2877      H2878   1.082       .  S
C2882      C2884   1.521       .  S
C2882      C2886   1.515       .  S
C2882      C2885   1.534       .  S
C2883      C2887   1.557       .  S
C2883      C2889   1.562       .  S
C2883      C2888   1.551       .  S
C2884      C2892   1.366       .  A
C2884      C2887   1.392       .  A
C2885      C2896   1.377       .  A
C2885      C2888   1.390       .  A
C2886      C2900   1.362       .  A
C2886      C2889   1.394       .  A
C2887      C2890   1.388       .  A
C2888      C2894   1.387       .  A
C2889      C2897   1.389       .  A
C2890      H2903   1.078       .  S
C2890      N2891   1.363       .  A
N2891      C2892   1.345       .  A
N2891      C2990   1.434       .  S
C2892      H2893   1.082       .  S
C2894      H2904   1.081       .  S
C2894      N2895   1.368       .  A
N2895      C2896   1.355       .  A
N2895      N3336   1.418   1_545  S
C2896      H2902   1.081       .  S
C2897      H2899   1.077       .  S
C2897      N2898   1.363       .  A
N2898      C2900   1.343       .  A
N2898      C3007   1.433       .  S
C2900      H2901   1.082       .  S
C2905      C2910   1.399       .  A
C2905      H2912   1.077       .  S
C2906      C2907   1.406       .  A
C2907      C2908   1.411       .  A
C2907      N2914   1.437       .  S
C2908      C2909   1.418       .  A
C2908      H2913   1.080       .  S
C2910      N2911   1.437       .  S
N2911      H2915   1.046       .  S
N2911      H2916   1.045       .  S
N2914      H2917   1.046       .  S
N2914      H2918   1.045       .  S
C2919      C2920   1.397       .  A
C2919      C2924   1.403       .  A
C2919      H2926   1.084       .  S
C2921      C2922   1.400       .  A
C2921      N2928   1.429       .  S
C2922      H2927   1.084       .  S
C2923      C2924   1.417       .  A
C2924      N2925   1.438       .  S
N2925      H2929   1.046       .  S
N2925      H2930   1.045       .  S
N2928      H2931   1.046       .  S
N2928      H2932   1.038       .  S
C2933      C2938   1.403       .  A
C2933      H2940   1.082       .  S
C2934      C2935   1.409   1_455  A
C2935      C2936   1.405   1_655  A
C2935      N2942   1.433       .  S
C2936      C2937   1.406       .  A
C2936      H2941   1.084   1_455  S
C2938      N2939   1.439       .  S
N2939      H2943   1.046       .  S
N2939      H2944   1.040       .  S
N2942      H2945   1.046       .  S
N2942      H2946   1.045       .  S
C2947      C2948   1.401   1_655  A
C2947      C2952   1.403       .  A
C2947      H2954   1.084       .  S
C2949      C2950   1.397       .  A
C2949      N2956   1.434       .  S
C2950      H2955   1.084       .  S
C2951      C2952   1.419   1_455  A
C2952      N2953   1.436       .  S
C2961      C2962   1.406       .  A
C2961      C2966   1.400       .  A
C2961      H2968   1.084       .  S
C2962      C2963   1.412       .  A
C2963      C2964   1.405       .  A
C2963      N2970   1.432       .  S
C2964      C2965   1.404       .  A
C2964      H2969   1.083       .  S
C2965      C2966   1.407       .  A
C2966      N2967   1.433       .  S
N2967      H2971   1.046       .  S
N2967      H2972   1.046       .  S
N2970      H2973   1.046       .  S
N2970      H2974   1.045       .  S
C2975      C2976   1.402       .  A
C2975      C2980   1.403       .  A
C2975      H2982   1.084       .  S
C2976      C2977   1.419       .  A
C2977      C2978   1.404       .  A
C2977      N2984   1.438       .  S
C2978      C2979   1.398       .  A
C2978      H2983   1.084       .  S
C2979      C2980   1.418       .  A
C2980      N2981   1.437       .  S
N2981      H2985   1.046       .  S
N2981      H2986   1.042       .  S
N2984      H2987   1.041       .  S
N2984      H2988   1.046       .  S
C2989      C2990   1.402       .  A
C2989      C2994   1.407       .  A
C2989      H2996   1.083       .  S
C2990      C2991   1.407       .  A
C2991      C2992   1.402       .  A
C2991      N2998   1.438       .  S
C2992      C2993   1.406       .  A
C2992      H2997   1.084       .  S
C2993      C2994   1.410       .  A
C2994      N2995   1.437       .  S
N2995      H2999   1.046       .  S
N2995      H3000   1.045       .  S
N2998      H3001   1.045       .  S
N2998      H3002   1.046       .  S
C3003      C3004   1.403       .  A
C3003      C3008   1.407       .  A
C3003      H3010   1.084       .  S
C3004      C3005   1.415       .  A
C3005      C3006   1.397       .  A
C3005      N3012   1.433       .  S
C3006      C3007   1.398       .  A
C3006      H3011   1.084       .  S
C3007      C3008   1.410       .  A
C3008      N3009   1.436       .  S
N3009      H3013   1.045       .  S
N3009      H3014   1.046       .  S
N3012      H3015   1.045       .  S
N3012      H3016   1.046       .  S
O3017      C3027   1.280       .  A
O3018      C3028   1.278       .  A
O3018     Cu3025   2.000       .  S
O3019      C3029   1.275       .  A
O3020      C3030   1.277       .  A
O3020     Cu3025   2.002       .  S
O3021      C3030   1.279       .  A
O3022      C3029   1.280       .  A
O3022     Cu3026   2.010       .  S
O3023      C3028   1.276       .  A
O3024      C3027   1.275       .  A
O3024     Cu3026   1.990       .  S
C3027      C3194   1.481       .  S
C3028      C3236   1.474       .  S
C3029      C3225   1.474       .  S
C3030      C3208   1.480       .  S
O3031      C3041   1.280   1_655  A
O3031     Cu3039   2.018       .  S
O3032      C3042   1.281       .  A
O3032     Cu3271   2.030       .  S
O3033      C3043   1.276       .  A
O3033     Cu3503   1.994       .  S
O3034      C3044   1.276   1_655  A
O3036     Cu3504   2.008       .  S
O3037     Cu3272   1.987   1_556  S
O3038     Cu3040   1.983   1_545  S
Cu3039     O3264   2.030   1_545  S
Cu3039     O3497   1.994   1_545  S
Cu3040     O3500   2.008       .  S
Cu3040     O3269   1.987       .  S
C3041      C3180   1.473       .  S
C3042      C3138   1.483       .  S
C3043      C3155   1.474       .  S
C3044      C3169   1.481       .  S
C3045      C3047   1.560       .  S
C3045      C3049   1.565       .  S
C3045      C3048   1.548       .  S
C3045      C3115   1.567       .  S
C3046      C3050   1.517       .  S
C3046      C3052   1.518       .  S
C3046      C3051   1.535       .  S
C3046      C3114   1.546       .  S
C3047      C3055   1.389       .  A
C3048      C3059   1.385       .  A
C3049      C3063   1.396       .  A
C3050      C3053   1.366       .  A
C3051      C3057   1.377       .  A
C3052      C3060   1.361       .  A
C3053      H3066   1.082       .  S
N3054      C3055   1.363   1_455  A
N3054      C3183   1.432       .  S
C3055      H3056   1.079       .  S
C3057      H3067   1.081       .  S
N3058      C3059   1.366       .  A
N3058      N3081   1.417       .  S
C3059      H3065   1.081       .  S
C3060      H3062   1.081       .  S
N3061      C3063   1.369   1_455  A
N3061      C3166   1.443       .  S
C3063      H3064   1.080       .  S
C3068      C3070   1.555       .  S
C3068      C3072   1.550       .  S
C3068      C3071   1.546       .  S
C3068      C3091   1.566       .  S
C3069      C3073   1.527       .  S
C3069      C3075   1.528       .  S
C3069      C3074   1.536       .  S
C3069      C3092   1.546       .  S
C3070      C3078   1.387       .  A
C3071      C3082   1.384       .  A
C3072      C3086   1.377       .  A
C3073      C3076   1.370       .  A
C3074      C3080   1.378       .  A
C3075      C3083   1.372       .  A
C3076      H3089   1.082       .  S
C3076      N3077   1.346       .  A
N3077      C3152   1.436       .  S
C3078      H3079   1.077       .  S
C3080      H3090   1.081       .  S
C3080      N3081   1.356       .  A
C3082      H3088   1.081       .  S
C3083      H3085   1.080       .  S
C3083      N3084   1.359       .  A
N3084      C3141   1.455       .  S
C3086      H3087   1.075       .  S
C3091      C3093   1.550       .  S
C3091      C3095   1.554       .  S
C3091      C3094   1.554       .  S
C3092      C3096   1.529       .  S
C3092      C3098   1.525       .  S
C3092      C3097   1.531       .  S
C3093      C3101   1.384       .  A
C3093      C3096   1.392       .  A
C3094      C3105   1.388       .  A
C3094      C3097   1.391       .  A
C3095      C3109   1.386       .  A
C3095      C3098   1.393       .  A
C3096      C3099   1.372       .  A
C3097      C3103   1.377       .  A
C3098      C3106   1.369       .  A
C3099      H3112   1.082       .  S
C3099      N3100   1.348       .  A
N3100      C3101   1.363       .  A
N3100      C3211   1.438       .  S
C3101      H3102   1.076       .  S
C3103      H3113   1.081       .  S
C3103      N3104   1.355       .  A
N3104      C3105   1.368       .  A
N3104      N3591   1.418       .  S
C3105      H3111   1.081       .  S
C3106      H3108   1.081       .  S
C3106      N3107   1.351       .  A
N3107      C3109   1.362       .  A
N3107      C3197   1.438       .  S
C3109      H3110   1.082       .  S
C3114      C3116   1.521       .  S
C3114      C3118   1.515       .  S
C3114      C3117   1.534       .  S
C3115      C3119   1.557       .  S
C3115      C3121   1.562       .  S
C3115      C3120   1.551       .  S
C3116      C3124   1.366       .  A
C3116      C3119   1.392       .  A
C3117      C3128   1.377       .  A
C3117      C3120   1.390       .  A
C3118      C3132   1.362       .  A
C3118      C3121   1.394       .  A
C3119      C3122   1.388       .  A
C3120      C3126   1.387       .  A
C3121      C3129   1.389       .  A
C3122      H3135   1.078       .  S
C3122      N3123   1.363       .  A
N3123      C3124   1.345       .  A
N3123      C3222   1.434       .  S
C3124      H3125   1.082       .  S
C3126      H3136   1.081       .  S
C3126      N3127   1.368       .  A
N3127      C3128   1.355       .  A
N3127      N3568   1.418   1_545  S
C3128      H3134   1.081       .  S
C3129      H3131   1.077       .  S
C3129      N3130   1.363       .  A
N3130      C3132   1.343       .  A
N3130      C3239   1.433       .  S
C3132      H3133   1.082       .  S
C3137      C3142   1.399       .  A
C3137      H3144   1.077       .  S
C3138      C3139   1.406       .  A
C3139      C3140   1.411       .  A
C3139      N3146   1.437       .  S
C3140      C3141   1.418       .  A
C3140      H3145   1.080       .  S
C3142      N3143   1.437       .  S
N3143      H3147   1.046       .  S
N3143      H3148   1.045       .  S
N3146      H3149   1.046       .  S
N3146      H3150   1.045       .  S
C3151      C3152   1.397       .  A
C3151      C3156   1.403       .  A
C3151      H3158   1.084       .  S
C3153      C3154   1.400       .  A
C3153      N3160   1.429       .  S
C3154      H3159   1.084       .  S
C3155      C3156   1.417       .  A
C3156      N3157   1.438       .  S
N3157      H3161   1.046       .  S
N3157      H3162   1.045       .  S
N3160      H3163   1.046       .  S
N3160      H3164   1.038       .  S
C3165      C3170   1.403       .  A
C3165      H3172   1.082       .  S
C3166      C3167   1.409   1_455  A
C3167      C3168   1.405   1_655  A
C3167      N3174   1.433       .  S
C3168      C3169   1.406       .  A
C3168      H3173   1.084   1_455  S
C3170      N3171   1.439       .  S
N3171      H3175   1.046       .  S
N3171      H3176   1.040       .  S
N3174      H3177   1.046       .  S
N3174      H3178   1.045       .  S
C3179      C3180   1.401   1_655  A
C3179      C3184   1.403       .  A
C3179      H3186   1.084       .  S
C3181      C3182   1.397       .  A
C3181      N3188   1.434       .  S
C3182      H3187   1.084       .  S
C3183      C3184   1.419   1_455  A
C3184      N3185   1.436       .  S
C3193      C3194   1.406       .  A
C3193      C3198   1.400       .  A
C3193      H3200   1.084       .  S
C3194      C3195   1.412       .  A
C3195      C3196   1.405       .  A
C3195      N3202   1.432       .  S
C3196      C3197   1.404       .  A
C3196      H3201   1.083       .  S
C3197      C3198   1.407       .  A
C3198      N3199   1.433       .  S
N3199      H3203   1.046       .  S
N3199      H3204   1.046       .  S
N3202      H3205   1.046       .  S
N3202      H3206   1.045       .  S
C3207      C3208   1.402       .  A
C3207      C3212   1.403       .  A
C3207      H3214   1.084       .  S
C3208      C3209   1.419       .  A
C3209      C3210   1.404       .  A
C3209      N3216   1.438       .  S
C3210      C3211   1.398       .  A
C3210      H3215   1.084       .  S
C3211      C3212   1.418       .  A
C3212      N3213   1.437       .  S
N3213      H3217   1.046       .  S
N3213      H3218   1.042       .  S
N3216      H3219   1.041       .  S
N3216      H3220   1.046       .  S
C3221      C3222   1.402       .  A
C3221      C3226   1.407       .  A
C3221      H3228   1.083       .  S
C3222      C3223   1.407       .  A
C3223      C3224   1.402       .  A
C3223      N3230   1.438       .  S
C3224      C3225   1.406       .  A
C3224      H3229   1.084       .  S
C3225      C3226   1.410       .  A
C3226      N3227   1.437       .  S
N3227      H3231   1.046       .  S
N3227      H3232   1.045       .  S
N3230      H3233   1.045       .  S
N3230      H3234   1.046       .  S
C3235      C3236   1.403       .  A
C3235      C3240   1.407       .  A
C3235      H3242   1.084       .  S
C3236      C3237   1.415       .  A
C3237      C3238   1.397       .  A
C3237      N3244   1.433       .  S
C3238      C3239   1.398       .  A
C3238      H3243   1.084       .  S
C3239      C3240   1.410       .  A
C3240      N3241   1.436       .  S
N3241      H3245   1.045       .  S
N3241      H3246   1.046       .  S
N3244      H3247   1.045       .  S
N3244      H3248   1.046       .  S
O3249      C3259   1.280       .  A
O3249     Cu3489   2.012       .  S
O3250      C3260   1.278       .  A
O3250     Cu3257   2.000       .  S
O3251      C3261   1.275       .  A
O3251     Cu3489   1.989       .  S
O3252      C3262   1.277       .  A
O3252     Cu3257   2.002       .  S
O3253      C3262   1.279       .  A
O3253     Cu3490   2.011   1_554  S
O3254      C3261   1.280       .  A
O3254     Cu3258   2.010       .  S
O3255      C3260   1.276       .  A
O3255     Cu3490   1.995   1_554  S
O3256      C3259   1.275       .  A
O3256     Cu3258   1.990       .  S
Cu3257     O3481   2.012   1_554  S
Cu3257     O3483   1.989   1_554  S
Cu3257    Cu3490   2.370   1_554  S
Cu3258     O3485   2.011       .  S
Cu3258     O3487   1.995       .  S
Cu3258    Cu3489   2.370       .  S
C3259      C3426   1.481       .  S
C3260      C3468   1.474       .  S
C3261      C3457   1.474       .  S
C3262      C3440   1.480       .  S
O3263      C3273   1.280   1_655  A
O3263     Cu3271   2.018   1_554  S
O3264      C3274   1.281       .  A
O3265      C3275   1.276       .  A
O3266      C3276   1.276   1_655  A
O3266     Cu3503   1.990       .  S
O3267     Cu3504   2.009       .  S
O3270     Cu3272   1.983       .  S
Cu3271     O3498   1.990       .  S
Cu3272     O3499   2.009   1_554  S
C3273      C3412   1.473       .  S
C3274      C3370   1.483       .  S
C3275      C3387   1.474       .  S
C3276      C3401   1.481       .  S
C3277      C3279   1.560       .  S
C3277      C3281   1.565       .  S
C3277      C3280   1.548       .  S
C3277      C3347   1.567       .  S
C3278      C3282   1.517       .  S
C3278      C3284   1.518       .  S
C3278      C3283   1.535       .  S
C3278      C3346   1.546       .  S
C3279      C3287   1.389       .  A
C3280      C3291   1.385       .  A
C3281      C3295   1.396       .  A
C3282      C3285   1.366       .  A
C3283      C3289   1.377       .  A
C3284      C3292   1.361       .  A
C3285      H3298   1.082       .  S
N3286      C3287   1.363   1_455  A
N3286      C3415   1.432       .  S
C3287      H3288   1.079       .  S
C3289      H3299   1.081       .  S
N3290      C3291   1.366       .  A
N3290      N3313   1.417       .  S
C3291      H3297   1.081       .  S
C3292      H3294   1.081       .  S
N3293      C3295   1.369   1_455  A
N3293      C3398   1.443       .  S
C3295      H3296   1.080       .  S
C3300      C3302   1.555       .  S
C3300      C3304   1.550       .  S
C3300      C3303   1.546       .  S
C3300      C3323   1.566       .  S
C3301      C3305   1.527       .  S
C3301      C3307   1.528       .  S
C3301      C3306   1.536       .  S
C3301      C3324   1.546       .  S
C3302      C3310   1.387       .  A
C3303      C3314   1.384       .  A
C3304      C3318   1.377       .  A
C3305      C3308   1.370       .  A
C3306      C3312   1.378       .  A
C3307      C3315   1.372       .  A
C3308      H3321   1.082       .  S
C3308      N3309   1.346       .  A
N3309      C3384   1.436       .  S
C3310      H3311   1.077       .  S
C3312      H3322   1.081       .  S
C3312      N3313   1.356       .  A
C3314      H3320   1.081       .  S
C3315      H3317   1.080       .  S
C3315      N3316   1.359       .  A
N3316      C3373   1.455       .  S
C3318      H3319   1.075       .  S
C3323      C3325   1.550       .  S
C3323      C3327   1.554       .  S
C3323      C3326   1.554       .  S
C3324      C3328   1.529       .  S
C3324      C3330   1.525       .  S
C3324      C3329   1.531       .  S
C3325      C3333   1.384       .  A
C3325      C3328   1.392       .  A
C3326      C3337   1.388       .  A
C3326      C3329   1.391       .  A
C3327      C3341   1.386       .  A
C3327      C3330   1.393       .  A
C3328      C3331   1.372       .  A
C3329      C3335   1.377       .  A
C3330      C3338   1.369       .  A
C3331      H3344   1.082       .  S
C3331      N3332   1.348       .  A
N3332      C3333   1.363       .  A
N3332      C3443   1.438       .  S
C3333      H3334   1.076       .  S
C3335      H3345   1.081       .  S
C3335      N3336   1.355       .  A
N3336      C3337   1.368       .  A
C3337      H3343   1.081       .  S
C3338      H3340   1.081       .  S
C3338      N3339   1.351       .  A
N3339      C3341   1.362       .  A
N3339      C3429   1.438       .  S
C3341      H3342   1.082       .  S
C3346      C3348   1.521       .  S
C3346      C3350   1.515       .  S
C3346      C3349   1.534       .  S
C3347      C3351   1.557       .  S
C3347      C3353   1.562       .  S
C3347      C3352   1.551       .  S
C3348      C3356   1.366       .  A
C3348      C3351   1.392       .  A
C3349      C3360   1.377       .  A
C3349      C3352   1.390       .  A
C3350      C3364   1.362       .  A
C3350      C3353   1.394       .  A
C3351      C3354   1.388       .  A
C3352      C3358   1.387       .  A
C3353      C3361   1.389       .  A
C3354      H3367   1.078       .  S
C3354      N3355   1.363       .  A
N3355      C3356   1.345       .  A
N3355      C3454   1.434       .  S
C3356      H3357   1.082       .  S
C3358      H3368   1.081       .  S
C3358      N3359   1.368       .  A
N3359      C3360   1.355       .  A
C3360      H3366   1.081       .  S
C3361      H3363   1.077       .  S
C3361      N3362   1.363       .  A
N3362      C3364   1.343       .  A
N3362      C3471   1.433       .  S
C3364      H3365   1.082       .  S
C3369      C3374   1.399       .  A
C3369      H3376   1.077       .  S
C3370      C3371   1.406       .  A
C3371      C3372   1.411       .  A
C3371      N3378   1.437       .  S
C3372      C3373   1.418       .  A
C3372      H3377   1.080       .  S
C3374      N3375   1.437       .  S
N3375      H3379   1.046       .  S
N3375      H3380   1.045       .  S
N3378      H3381   1.046       .  S
N3378      H3382   1.045       .  S
C3383      C3384   1.397       .  A
C3383      C3388   1.403       .  A
C3383      H3390   1.084       .  S
C3385      C3386   1.400       .  A
C3385      N3392   1.429       .  S
C3386      H3391   1.084       .  S
C3387      C3388   1.417       .  A
C3388      N3389   1.438   1_565  S
N3389      H3393   1.046       .  S
N3389      H3394   1.045   1_545  S
N3392      H3395   1.046       .  S
N3392      H3396   1.038       .  S
C3397      C3402   1.403       .  A
C3397      H3404   1.082       .  S
C3398      C3399   1.409   1_455  A
C3399      C3400   1.405   1_655  A
C3399      N3406   1.433       .  S
C3400      C3401   1.406       .  A
C3400      H3405   1.084   1_455  S
C3402      N3403   1.439       .  S
N3403      H3407   1.046       .  S
N3403      H3408   1.040       .  S
N3406      H3409   1.046       .  S
N3406      H3410   1.045       .  S
C3411      C3412   1.401   1_655  A
C3411      C3416   1.403       .  A
C3411      H3418   1.084       .  S
C3413      C3414   1.397       .  A
C3413      N3420   1.434       .  S
C3414      H3419   1.084       .  S
C3415      C3416   1.419   1_455  A
C3416      N3417   1.436       .  S
C3425      C3426   1.406       .  A
C3425      C3430   1.400       .  A
C3425      H3432   1.084       .  S
C3426      C3427   1.412       .  A
C3427      C3428   1.405       .  A
C3427      N3434   1.432       .  S
C3428      C3429   1.404       .  A
C3428      H3433   1.083       .  S
C3429      C3430   1.407       .  A
C3430      N3431   1.433       .  S
N3431      H3435   1.046       .  S
N3431      H3436   1.046       .  S
N3434      H3437   1.046       .  S
N3434      H3438   1.045       .  S
C3439      C3440   1.402       .  A
C3439      C3444   1.403       .  A
C3439      H3446   1.084       .  S
C3440      C3441   1.419       .  A
C3441      C3442   1.404       .  A
C3441      N3448   1.438       .  S
C3442      C3443   1.398       .  A
C3442      H3447   1.084       .  S
C3443      C3444   1.418       .  A
C3444      N3445   1.437       .  S
N3445      H3449   1.046       .  S
N3445      H3450   1.042       .  S
N3448      H3451   1.041       .  S
N3448      H3452   1.046       .  S
C3453      C3454   1.402       .  A
C3453      C3458   1.407       .  A
C3453      H3460   1.083       .  S
C3454      C3455   1.407       .  A
C3455      C3456   1.402       .  A
C3455      N3462   1.438       .  S
C3456      C3457   1.406       .  A
C3456      H3461   1.084       .  S
C3457      C3458   1.410       .  A
C3458      N3459   1.437       .  S
N3459      H3463   1.046       .  S
N3459      H3464   1.045       .  S
N3462      H3465   1.045       .  S
N3462      H3466   1.046       .  S
C3467      C3468   1.403       .  A
C3467      C3472   1.407       .  A
C3467      H3474   1.084       .  S
C3468      C3469   1.415       .  A
C3469      C3470   1.397       .  A
C3469      N3476   1.433       .  S
C3470      C3471   1.398       .  A
C3470      H3475   1.084       .  S
C3471      C3472   1.410       .  A
C3472      N3473   1.436       .  S
N3473      H3477   1.045       .  S
N3473      H3478   1.046       .  S
N3476      H3479   1.045       .  S
N3476      H3480   1.046       .  S
O3481      C3491   1.280       .  A
O3482      C3492   1.278       .  A
O3482     Cu3489   2.000       .  S
O3483      C3493   1.275       .  A
O3484      C3494   1.277       .  A
O3484     Cu3489   2.002       .  S
O3485      C3494   1.279       .  A
O3486      C3493   1.280       .  A
O3486     Cu3490   2.010       .  S
O3487      C3492   1.276       .  A
O3488      C3491   1.275       .  A
O3488     Cu3490   1.990       .  S
C3491      C3658   1.481       .  S
C3492      C3700   1.474       .  S
C3493      C3689   1.474       .  S
C3494      C3672   1.480       .  S
O3495      C3505   1.280   1_655  A
O3495     Cu3503   2.018       .  S
O3496      C3506   1.281       .  A
O3497      C3507   1.276       .  A
O3498      C3508   1.276   1_655  A
O3502     Cu3504   1.983       .  S
C3505      C3644   1.473       .  S
C3506      C3602   1.483       .  S
C3507      C3619   1.474       .  S
C3508      C3633   1.481       .  S
C3509      C3511   1.560       .  S
C3509      C3513   1.565       .  S
C3509      C3512   1.548       .  S
C3509      C3579   1.567       .  S
C3510      C3514   1.517       .  S
C3510      C3516   1.518       .  S
C3510      C3515   1.535       .  S
C3510      C3578   1.546       .  S
C3511      C3519   1.389       .  A
C3512      C3523   1.385       .  A
C3513      C3527   1.396       .  A
C3514      C3517   1.366       .  A
C3515      C3521   1.377       .  A
C3516      C3524   1.361       .  A
C3517      H3530   1.082       .  S
N3518      C3519   1.363   1_455  A
N3518      C3647   1.432       .  S
C3519      H3520   1.079       .  S
C3521      H3531   1.081       .  S
N3522      C3523   1.366       .  A
N3522      N3545   1.417       .  S
C3523      H3529   1.081       .  S
C3524      H3526   1.081       .  S
N3525      C3527   1.369   1_455  A
N3525      C3630   1.443       .  S
C3527      H3528   1.080       .  S
C3532      C3534   1.555       .  S
C3532      C3536   1.550       .  S
C3532      C3535   1.546       .  S
C3532      C3555   1.566       .  S
C3533      C3537   1.527       .  S
C3533      C3539   1.528       .  S
C3533      C3538   1.536       .  S
C3533      C3556   1.546       .  S
C3534      C3542   1.387       .  A
C3535      C3546   1.384       .  A
C3536      C3550   1.377       .  A
C3537      C3540   1.370       .  A
C3538      C3544   1.378       .  A
C3539      C3547   1.372       .  A
C3540      H3553   1.082       .  S
C3540      N3541   1.346       .  A
N3541      C3616   1.436       .  S
C3542      H3543   1.077       .  S
C3544      H3554   1.081       .  S
C3544      N3545   1.356       .  A
C3546      H3552   1.081       .  S
C3547      H3549   1.080       .  S
C3547      N3548   1.359       .  A
N3548      C3605   1.455       .  S
C3550      H3551   1.075       .  S
C3555      C3557   1.550       .  S
C3555      C3559   1.554       .  S
C3555      C3558   1.554       .  S
C3556      C3560   1.529       .  S
C3556      C3562   1.525       .  S
C3556      C3561   1.531       .  S
C3557      C3565   1.384       .  A
C3557      C3560   1.392       .  A
C3558      C3569   1.388       .  A
C3558      C3561   1.391       .  A
C3559      C3573   1.386       .  A
C3559      C3562   1.393       .  A
C3560      C3563   1.372       .  A
C3561      C3567   1.377       .  A
C3562      C3570   1.369       .  A
C3563      H3576   1.082       .  S
C3563      N3564   1.348       .  A
N3564      C3565   1.363       .  A
N3564      C3675   1.438       .  S
C3565      H3566   1.076       .  S
C3567      H3577   1.081       .  S
C3567      N3568   1.355       .  A
N3568      C3569   1.368       .  A
C3569      H3575   1.081       .  S
C3570      H3572   1.081       .  S
C3570      N3571   1.351       .  A
N3571      C3573   1.362       .  A
N3571      C3661   1.438       .  S
C3573      H3574   1.082       .  S
C3578      C3580   1.521       .  S
C3578      C3582   1.515       .  S
C3578      C3581   1.534       .  S
C3579      C3583   1.557       .  S
C3579      C3585   1.562       .  S
C3579      C3584   1.551       .  S
C3580      C3588   1.366       .  A
C3580      C3583   1.392       .  A
C3581      C3592   1.377       .  A
C3581      C3584   1.390       .  A
C3582      C3596   1.362       .  A
C3582      C3585   1.394       .  A
C3583      C3586   1.388       .  A
C3584      C3590   1.387       .  A
C3585      C3593   1.389       .  A
C3586      H3599   1.078       .  S
C3586      N3587   1.363       .  A
N3587      C3588   1.345       .  A
N3587      C3686   1.434       .  S
C3588      H3589   1.082       .  S
C3590      H3600   1.081       .  S
C3590      N3591   1.368       .  A
N3591      C3592   1.355       .  A
C3592      H3598   1.081       .  S
C3593      H3595   1.077       .  S
C3593      N3594   1.363       .  A
N3594      C3596   1.343       .  A
N3594      C3703   1.433       .  S
C3596      H3597   1.082       .  S
C3601      C3606   1.399       .  A
C3601      H3608   1.077       .  S
C3602      C3603   1.406       .  A
C3603      C3604   1.411       .  A
C3603      N3610   1.437       .  S
C3604      C3605   1.418       .  A
C3604      H3609   1.080       .  S
C3606      N3607   1.437       .  S
N3607      H3611   1.046       .  S
N3607      H3612   1.045       .  S
N3610      H3613   1.046       .  S
N3610      H3614   1.045       .  S
C3615      C3616   1.397       .  A
C3615      C3620   1.403       .  A
C3615      H3622   1.084       .  S
C3617      C3618   1.400       .  A
C3617      N3624   1.429       .  S
C3618      H3623   1.084       .  S
C3619      C3620   1.417       .  A
C3620      N3621   1.438   1_565  S
N3621      H3625   1.046       .  S
N3621      H3626   1.045   1_545  S
N3624      H3627   1.046       .  S
N3624      H3628   1.038       .  S
C3629      C3634   1.403       .  A
C3629      H3636   1.082       .  S
C3630      C3631   1.409   1_455  A
C3631      C3632   1.405   1_655  A
C3631      N3638   1.433       .  S
C3632      C3633   1.406       .  A
C3632      H3637   1.084   1_455  S
C3634      N3635   1.439       .  S
N3635      H3639   1.046       .  S
N3635      H3640   1.040       .  S
N3638      H3641   1.046       .  S
N3638      H3642   1.045       .  S
C3643      C3644   1.401   1_655  A
C3643      C3648   1.403       .  A
C3643      H3650   1.084       .  S
C3645      C3646   1.397       .  A
C3645      N3652   1.434       .  S
C3646      H3651   1.084       .  S
C3647      C3648   1.419   1_455  A
C3648      N3649   1.436       .  S
C3657      C3658   1.406       .  A
C3657      C3662   1.400       .  A
C3657      H3664   1.084       .  S
C3658      C3659   1.412       .  A
C3659      C3660   1.405       .  A
C3659      N3666   1.432       .  S
C3660      C3661   1.404       .  A
C3660      H3665   1.083       .  S
C3661      C3662   1.407       .  A
C3662      N3663   1.433       .  S
N3663      H3667   1.046       .  S
N3663      H3668   1.046       .  S
N3666      H3669   1.046       .  S
N3666      H3670   1.045       .  S
C3671      C3672   1.402       .  A
C3671      C3676   1.403       .  A
C3671      H3678   1.084       .  S
C3672      C3673   1.419       .  A
C3673      C3674   1.404       .  A
C3673      N3680   1.438       .  S
C3674      C3675   1.398       .  A
C3674      H3679   1.084       .  S
C3675      C3676   1.418       .  A
C3676      N3677   1.437       .  S
N3677      H3681   1.046       .  S
N3677      H3682   1.042       .  S
N3680      H3683   1.041       .  S
N3680      H3684   1.046       .  S
C3685      C3686   1.402       .  A
C3685      C3690   1.407       .  A
C3685      H3692   1.083       .  S
C3686      C3687   1.407       .  A
C3687      C3688   1.402       .  A
C3687      N3694   1.438       .  S
C3688      C3689   1.406       .  A
C3688      H3693   1.084       .  S
C3689      C3690   1.410       .  A
C3690      N3691   1.437       .  S
N3691      H3695   1.046       .  S
N3691      H3696   1.045       .  S
N3694      H3697   1.045       .  S
N3694      H3698   1.046       .  S
C3699      C3700   1.403       .  A
C3699      C3704   1.407       .  A
C3699      H3706   1.084       .  S
C3700      C3701   1.415       .  A
C3701      C3702   1.397       .  A
C3701      N3708   1.433       .  S
C3702      C3703   1.398       .  A
C3702      H3707   1.084       .  S
C3703      C3704   1.410       .  A
C3704      N3705   1.436       .  S
N3705      H3709   1.045       .  S
N3705      H3710   1.046       .  S
N3708      H3711   1.045       .  S
N3708      H3712   1.046       .  S
