geometry optimzed in LAMMPS
_audit_creation_date              2020-11-30 
_audit_creation_method            'lammps2cif' 
_symmetry_space_group_name_H-M    'P1' 
_symmetry_Int_Tables_number       1 
_symmetry_cell_setting            triclinic 
loop_ 
_symmetry_equiv_pos_as_xyz 
  x,y,z 
_cell_length_a                    41.52035672 
_cell_length_b                    41.59389585392242 
_cell_length_c                    41.61203647579304 
_cell_angle_alpha                 91.62478703366051 
_cell_angle_beta                  90.23291536780386 
_cell_angle_gamma                 89.37564752287702 
loop_ 
_atom_site_label 
_atom_site_type_symbol 
_atom_site_fract_x 
_atom_site_fract_y 
_atom_site_fract_z 
_atom_site_charge 
C1          C  0.23124587  0.15448945  0.03532471     0.80600
N2          N  0.21572370  0.13087472  0.01687967    -0.77700
C3          C  0.18227303  0.13237305  0.01427017     0.83000
N4          N  0.16612647  0.15638570  0.02963796    -0.77700
C5          C  0.18088845  0.17899229  0.04754302     0.83100
N6          N  0.21324073  0.17763194  0.05028209    -0.79400
C7          C  0.04433417  0.02176888  0.34378407     0.80600
N8          N  0.07296703  0.02138999  0.32848989    -0.77700
C9          C  0.07605662  0.01196392  0.29721402     0.83000
N10         N  0.04987593  0.00374801  0.28017158    -0.77700
C11         C  0.52049431  0.00345251  0.29373221     0.83100
N12         N  0.01719148  0.01191152  0.32633559    -0.79400
C13         C  0.44605083  0.33588458  0.13652274     0.80600
N14         N  0.42303132  0.31688196  0.12079013    -0.77700
C15         C  0.42491286  0.28329465  0.12269177     0.83000
N16         N  0.44800561  0.27044528  0.14182885    -0.77700
C17         C  0.46892734  0.28917436  0.15851874     0.83100
N18         N  0.46849309  0.32099393  0.15431469    -0.79400
C19         C  0.15145777  0.23978982  0.29394709     0.80600
N20         N  0.14701486  0.21547943  0.31471626    -0.77700
C21         C  0.16875032  0.19061417  0.31586032     0.83000
N22         N  0.19164522  0.18787047  0.29294296    -0.77700
C23         C  0.19303719  0.20903484  0.26957321     0.83100
N24         N  0.17679336  0.23711954  0.27362105    -0.79400
O25         O  0.25844260  0.31514345  0.38815392    -0.78100
C26         C  0.29074233  0.36050354  0.29416801     0.82900
O27         O  0.16889668  0.37082861  0.37072902    -0.79200
O28         O  0.17593216  0.34814390  0.26733406    -0.80700
O29         O  0.25454123  0.25521482  0.29013623    -0.80500
O30         O  0.26152247  0.26290737  0.37909291    -0.79100
Zn31       Zn  0.24553698  0.34106149  0.35044071     1.55700
O32         O  0.22934832  0.28606567  0.25418648    -0.80500
Cd33       Cd  0.23249347  0.26845226  0.33567662     1.59700
Cd34       Cd  0.17124120  0.32470980  0.34402602     1.59600
O35         O  0.19485309  0.24098405  0.35390060    -0.80500
O36         O  0.21676334  0.31497360  0.32714018    -1.91000
Cd37       Cd  0.22274332  0.32884306  0.28111001     1.59900
O38         O  0.16149798  0.28102046  0.37045648    -0.80500
O39         O  0.26881313  0.35540365  0.27256890    -0.79100
C40         C  0.19220407  0.39082953  0.37284221     0.83400
C41         C  0.26414564  0.28702141  0.39850070     0.83000
O42         O  0.28434803  0.35383031  0.32336047    -0.78100
C43         C  0.25019527  0.26454308  0.26096732     0.83900
O44         O  0.22084247  0.38151335  0.36547650    -0.78200
C45         C  0.17107433  0.25114530  0.37102872     0.84000
C46         C  0.14613674  0.34602869  0.27635332     0.84300
O47         O  0.13914355  0.33460180  0.30391096    -0.80600
C48         C  0.01675338  0.00782566  0.10120664     0.80600
N49         N  0.98904390  0.51753879  0.09369195    -0.77700
C50         C  0.98109649  0.52080555  0.06257814     0.83000
N51         N  0.00500573  0.52470706  0.04097568    -0.77700
C52         C  0.03474212  0.02009956  0.04815071     0.83100
N53         N  0.04167006  0.00957827  0.07902072    -0.79400
C54         C  0.13198120  0.17833103  0.40971094     0.80600
N55         N  0.11495366  0.19532353  0.43201045    -0.77700
C56         C  0.11772053  0.22743319  0.43676492     0.83000
N57         N  0.13686664  0.24370890  0.41703623    -0.77700
C58         C  0.15381508  0.22868052  0.39318920     0.83100
N59         N  0.15219205  0.19524733  0.38984998    -0.79400
C60         C  0.32301240  0.37808708  0.29019931     0.80600
N61         N  0.33241607  0.39218603  0.31820444    -0.77700
C62         C  0.35970108  0.40901791  0.32173317     0.83000
N63         N  0.37985648  0.41083956  0.29687525    -0.77700
C64         C  0.37280462  0.39718787  0.26786733     0.83100
N65         N  0.34344828  0.38081252  0.26367663    -0.79400
C66         C  0.35621099  0.31083231  0.49863144     0.80600
N67         N  0.38217008  0.29209205  0.48963786    -0.77700
C68         C  0.40518964  0.28427040  0.51173794     0.83000
N69         N  0.39630701  0.28622611  0.03533568    -0.77700
C70         C  0.37534065  0.31055749  0.04217843     0.83100
N71         N  0.35307440  0.31911392  0.53001759    -0.79400
O72         O  0.02806991  0.10957740  0.44973448    -0.78100
C73         C  0.12435519  0.14238202  0.40888758     0.82900
O74         O  0.04892895  0.01631453  0.40217386    -0.79200
O75         O  0.15438074  0.03017561  0.41871957    -0.80700
O76         O  0.13011208  0.11083535  0.00541632    -0.80500
O77         O  0.04017926  0.11525405  0.00128843    -0.79100
Zn78       Zn  0.06724547  0.09403675  0.42314538     1.55700
O79         O  0.16968399  0.09008156  0.97481880    -0.80500
Cd80       Cd  0.08542328  0.08737682  0.99578126     1.59700
Cd81       Cd  0.07862229  0.02236800  0.44582984     1.59600
O82         O  0.07861007  0.04979547  0.02761789    -0.80500
O83         O  0.09364436  0.06876218  0.45053269    -1.91000
Cd84       Cd  0.14022245  0.07633910  0.43653761     1.59900
O85         O  0.05667402  0.51450429  0.99401507    -0.80500
O86         O  0.14605276  0.12014613  0.40919642    -0.79100
C87         C  0.04621562  0.03536306  0.37832238     0.83400
C88         C  0.01953968  0.11954060  0.97864613     0.83000
O89         O  0.09494899  0.13494232  0.41422818    -0.78100
C90         C  0.16019405  0.10899258  0.99751575     0.83900
O91         O  0.05349872  0.06525271  0.38242780    -0.78200
C92         C  0.05874647  0.02714080  0.02208691     0.84000
C93         C  0.14540238  0.50084741  0.41754218     0.84300
O94         O  0.11822207  0.49295933  0.42946621    -0.80600
C95         C  0.98838521  0.13923062  0.98142554     0.80600
N96         N  0.96448867  0.14050272  0.00483871    -0.77700
C97         C  0.93548862  0.15691857  0.99844578     0.83000
N98         N  0.43482038  0.17340239  0.46905152    -0.77700
C99         C  0.95904440  0.17213539  0.44770719     0.83100
N100        N  0.98600213  0.15564809  0.45451419    -0.79400
C101        C  0.29908277  0.24704713  0.18553662     0.80600
N102        N  0.32700843  0.25991617  0.19672293    -0.77700
C103        C  0.33016829  0.27237859  0.22721932     0.83000
N104        N  0.30483173  0.27131835  0.24709168    -0.77700
C105        C  0.27642282  0.25884921  0.23736258     0.83100
N106        N  0.27300121  0.24679685  0.20612748    -0.79400
C107        C  0.18813158  0.42682877  0.37843010     0.80600
N108        N  0.16569619  0.44362091  0.39759472    -0.77700
C109        C  0.16804182  0.47706627  0.40075989     0.83000
N110        N  0.19170012  0.49182467  0.38493618    -0.77700
C111        C  0.21190144  0.47591424  0.36513285     0.83100
N112        N  0.21012648  0.44375577  0.36212489    -0.79400
C113        C  0.42493520  0.10348530  0.22375715     0.80600
N114        N  0.39753268  0.08626315  0.22550204    -0.77700
C115        C  0.39643436  0.05958884  0.24336528     0.83000
N116        N  0.42267172  0.05026018  0.26009666    -0.77700
C117        C  0.45029402  0.06685662  0.25886469     0.83100
N118        N  0.45112769  0.09294130  0.24001183    -0.79400
O119        O  0.30041538  0.20249719  0.14599505    -0.78100
C120        C  0.26632476  0.15572632  0.04501650     0.82900
O121        O  0.38511139  0.13697819  0.12045381    -0.79200
O122        O  0.37916309  0.16504396  0.01166018    -0.80700
O123        O  0.30969236  0.26154744  0.04052298    -0.80500
O124        O  0.30705093  0.25205417  0.12861434    -0.79100
Zn125      Zn  0.31104801  0.17363229  0.10397602     1.55700
O126        O  0.31754090  0.22389797  0.50183224    -0.80500
Cd127      Cd  0.33188063  0.24365000  0.08395576     1.59700
Cd128      Cd  0.38625948  0.18226251  0.09280245     1.59600
O129        O  0.37453136  0.26918476  0.09548478    -0.80500
O130        O  0.34128854  0.19558596  0.07699814    -1.91000
Cd131      Cd  0.33307464  0.18314021  0.02952741     1.59900
O132        O  0.40527282  0.22852766  0.11259847    -0.80500
O133        O  0.28938958  0.15494049  0.02443190    -0.79100
C134        C  0.36003984  0.11955773  0.12481261     0.83400
C135        C  0.30008496  0.23308197  0.15135446     0.83000
O136        O  0.27181493  0.16367684  0.07464642    -0.78100
C137        C  0.30610028  0.25148968  0.51069279     0.83900
O138        O  0.33212144  0.13114735  0.11793432    -0.78200
C139        C  0.40019163  0.25922762  0.10924343     0.84000
C140        C  0.40821621  0.16143960  0.02263776     0.84300
O141        O  0.41475824  0.16688935  0.05239633    -0.80600
C142        C  0.35951450  0.08609108  0.13981384     0.80600
N143        N  0.38508958  0.06506639  0.14591615    -0.77700
C144        C  0.37904465  0.03483134  0.15860037     0.83000
N145        N  0.34795786  0.02698503  0.16542149    -0.77700
C146        C  0.32332058  0.04818026  0.16073701     0.83100
N147        N  0.32951356  0.07669275  0.14764876    -0.79400
C148        C  0.07322313  0.37157630  0.22355806     0.80600
N149        N  0.09132353  0.36778824  0.25178496    -0.77700
C150        C  0.12089343  0.35127532  0.25015924     0.83000
N151        N  0.13067897  0.33918818  0.22144375    -0.77700
C152        C  0.11361487  0.34233802  0.19426771     0.83100
N153        N  0.08529682  0.35878432  0.19554742    -0.79400
C154        C  0.26857620  0.28638661  0.43462911     0.80600
N155        N  0.25731692  0.31376659  0.44802012    -0.77700
C156        C  0.26310515  0.32332800  0.47820642     0.83000
N157        N  0.27879835  0.30281950  0.49798236    -0.77700
C158        C  0.28918259  0.27314915  0.48671100     0.83100
N159        N  0.28479854  0.26495475  0.45407002    -0.79400
C160        C  0.13263302  0.48612334  0.03993471     0.80600
N161        N  0.12230284  0.45707191  0.04859853    -0.77700
C162        C  0.11518875  0.45042289  0.07904620     0.83000
N163        N  0.11386246  0.97056982  0.10191501    -0.77700
C164        C  0.12183817  0.00121276  0.09450646     0.83100
N165        N  0.13426794  0.50998430  0.06286722    -0.79400
O166        O  0.47553551  0.38368431  0.14766890    -0.78100
C167        C  0.01602112  0.98959360  0.13224866     0.82900
O168        O  0.51939248  0.39378607  0.24165371    -0.79200
O169        O  0.49345868  0.00436015  0.24277599    -0.80700
O170        O  0.39877691  0.97934273  0.16252917    -0.80500
O171        O  0.42227240  0.38990339  0.14834527    -0.79100
Zn172      Zn  0.49945730  0.42374744  0.16676641     1.55700
O173        O  0.43125036  0.01874664  0.18091516    -0.80500
Cd174      Cd  0.42100566  0.43376263  0.17896596     1.59700
Cd175      Cd  0.47471153  0.42381613  0.24039068     1.59600
O176        O  0.39104859  0.41564562  0.21603819    -0.80500
O177        O  0.46732276  0.44351125  0.19601020    -1.91000
Cd178      Cd  0.47414215  0.99285181  0.19530377     1.59900
O179        O  0.42815872  0.40412744  0.25346758    -0.80500
O180        O  0.50669651  0.00534609  0.15753825    -0.79100
C181        C  0.54223195  0.39166047  0.22064849     0.83400
C182        C  0.44724867  0.37228066  0.14223159     0.83000
O183        O  0.51522634  0.45804299  0.13251204    -0.78100
C184        C  0.40499073  0.00978553  0.16692280     0.83900
O185        O  0.53789119  0.40411495  0.19295419    -0.78200
C186        C  0.39851306  0.40409294  0.24332313     0.84000
C187        C  0.49537658  0.99100147  0.27047468     0.84300
O188        O  0.48386209  0.96304591  0.27465846    -0.80600
C189        C  0.22657749  0.39845862  0.51857918    -0.05100
C190        C  0.22555016  0.41902291  0.49242417     0.09000
C191        C  0.24313646  0.41108554  0.46493660    -0.02500
C192        C  0.25814361  0.38090171  0.46159528    -0.00700
C193        C  0.25477064  0.35762155  0.48592724    -0.04400
C194        C  0.24005148  0.36730143  0.51511282     0.02700
C195        C  0.20213119  0.44637209  0.49235971     0.09500
C196        C  0.24562791  0.43417439  0.44002740     0.35400
C197        C  0.23785801  0.34507952  0.54079378     0.38800
C198        C  0.21198056  0.47708252  0.00626296    -0.04700
C199        C  0.18546216  0.49718526  0.01444707     0.02400
C200        C  0.15381057  0.48514701  0.01103016    -0.04300
C201        C  0.14924404  0.45823719  0.98983685    -0.00600
C202        C  0.17050546  0.44081699  0.48129739    -0.03100
C203        C  0.24466615  0.48739008  0.01268481     0.36100
C204        C  0.11680308  0.44846048  0.98103870     0.39700
C205        C  0.19112331  0.52836299  0.02958359     0.38900
C206        C  0.16297610  0.41119273  0.46372694     0.35800
C207        C  0.22485580  0.41203332  0.05106966     0.36500
C208        C  0.27585344  0.37430817  0.43208895     0.39700
N209        N  0.19659197  0.55309325  0.04163976    -0.38300
N210        N  0.27084597  0.49544614  0.01766512    -0.39900
N211        N  0.09097564  0.44085124  0.97382827    -0.37700
N212        N  0.15698034  0.38755134  0.44975240    -0.40000
N213        N  0.24837070  0.45260909  0.42011750    -0.39800
N214        N  0.28906091  0.37076188  0.40785145    -0.37500
N215        N  0.23662192  0.32681399  0.56107695    -0.38500
N216        N  0.21639230  0.42289338  0.07547441    -0.40200
C217        C  0.12087681  0.31069481  0.10779616    -0.05100
C218        C  0.15237604  0.32095227  0.10222689     0.09000
C219        C  0.17273144  0.31492375  0.12821243    -0.02500
C220        C  0.16094718  0.32312970  0.15927316    -0.00700
C221        C  0.12700349  0.32894614  0.16336320    -0.04400
C222        C  0.10647740  0.32046508  0.13702427     0.02700
C223        C  0.15271798  0.35480835  0.08964490     0.09500
C224        C  0.20665404  0.30921109  0.12241474     0.35400
C225        C  0.07168743  0.32160168  0.13928811     0.38800
C226        C  0.16488082  0.38097256  0.10864499    -0.04700
C227        C  0.14949283  0.41125372  0.10839413     0.02400
C228        C  0.12310164  0.41682309  0.08746805    -0.04300
C229        C  0.11394887  0.39167497  0.06574350    -0.00600
C230        C  0.13095044  0.36226270  0.06482708    -0.03100
C231        C  0.19561625  0.37884977  0.12540012     0.36100
C232        C  0.08693152  0.39556843  0.04402044     0.39700
C233        C  0.16230316  0.93114502  0.12707652     0.38900
C234        C  0.12705881  0.34000372  0.03768461     0.35800
C235        C  0.10429709  0.29121189  0.08385343     0.36500
C236        C  0.18438664  0.32949150  0.18453228     0.39700
N237        N  0.17560978  0.94991662  0.14311217    -0.38300
N238        N  0.22028613  0.37886055  0.13850778    -0.39900
N239        N  0.06530878  0.39699770  0.02655664    -0.37700
N240        N  0.12419623  0.32272358  0.01558819    -0.40000
N241        N  0.23400264  0.30496307  0.11884308    -0.39800
N242        N  0.20385161  0.33452422  0.20394942    -0.37500
N243        N  0.04388015  0.32253010  0.14099239    -0.38500
N244        N  0.09183346  0.27511597  0.06450118    -0.40200
C245        C  0.17497102  0.06261869  0.12951749    -0.05100
C246        C  0.18549131  0.04482872  0.15591611     0.09000
C247        C  0.16412808  0.02308829  0.16975320    -0.02500
C248        C  0.13626128  0.01354638  0.15258243    -0.00700
C249        C  0.13145941  0.02447973  0.12099897    -0.04400
C250        C  0.14697941  0.05308782  0.11280517     0.02700
C251        C  0.22078739  0.04197470  0.16221114     0.09500
C252        C  0.17261555  0.00796835  0.19955287     0.35400
C253        C  0.13503842  0.07152730  0.08638277     0.38800
C254        C  0.23623213  0.06148031  0.18545999    -0.04700
C255        C  0.27021540  0.06128201  0.18746309     0.02400
C256        C  0.28895289  0.04060507  0.16701541    -0.04300
C257        C  0.27290060  0.01864801  0.14630616    -0.00600
C258        C  0.23923445  0.02061298  0.14259647    -0.03100
C259        C  0.21728360  0.08328051  0.20579861     0.36100
C260        C  0.29078512  0.99451778  0.12796578     0.39700
C261        C  0.28541768  0.08288127  0.21048374     0.38900
C262        C  0.22377281  0.00327341  0.11617252     0.35800
C263        C  0.19472263  0.08816587  0.11751596     0.36500
C264        C  0.11458922  0.99039383  0.16601868     0.39700
N265        N  0.29564528  0.10074616  0.22957712    -0.38300
N266        N  0.20241552  0.10087768  0.22199654    -0.39900
N267        N  0.30403228  0.97421564  0.11369052    -0.37700
N268        N  0.21094902  0.99072832  0.09462062    -0.40000
N269        N  0.17911779  0.99566375  0.22332664    -0.39800
N270        N  0.09732255  0.97177981  0.17654156    -0.37500
N271        N  0.12755196  0.59035171  0.06575328    -0.38500
N272        N  0.21028495  0.10854685  0.10767450    -0.40200
C273        C  0.33352522  0.50839136  0.27511478    -0.05100
C274        C  0.31412675  0.53057544  0.29284214     0.09000
C275        C  0.31900925  0.06180331  0.28968547    -0.02500
C276        C  0.34617392  0.07192011  0.27319538    -0.00700
C277        C  0.36537785  0.04936706  0.25568665    -0.04400
C278        C  0.36099275  0.51893774  0.25917994     0.02700
C279        C  0.28629506  0.51913002  0.31147080     0.09500
C280        C  0.30058118  0.08520136  0.30877995     0.35400
C281        C  0.38460770  0.49585625  0.24698569     0.38800
C282        C  0.28658900  0.52161116  0.34540291    -0.04700
C283        C  0.25983802  0.51143240  0.36273027     0.02400
C284        C  0.23562547  0.49352785  0.34666395    -0.04300
C285        C  0.23556163  0.49056836  0.31282336    -0.00600
C286        C  0.25979625  0.50517196  0.29520906    -0.03100
C287        C  0.31503180  0.53288406  0.36259683     0.36100
C288        C  0.21104955  0.47195282  0.29603488     0.39700
C289        C  0.25792566  0.51865122  0.39696421     0.38900
C290        C  0.25796993  0.50492489  0.26038659     0.35800
C291        C  0.32511330  0.47477672  0.27335769     0.36500
C292        C  0.35567766  0.10520854  0.27729967     0.39700
N293        N  0.25637965  0.52502716  0.42419006    -0.38300
N294        N  0.33774118  0.54176761  0.37624717    -0.39900
N295        N  0.19195282  0.45670699  0.28243047    -0.37700
N296        N  0.25660840  0.50433423  0.23259461    -0.40000
N297        N  0.28685432  0.10408903  0.32457345    -0.39800
N298        N  0.36235462  0.13184649  0.28185430    -0.37500
N299        N  0.40479124  0.47832966  0.23843304    -0.38500
N300        N  0.31680070  0.44839558  0.27127079    -0.40200
C301        C  0.39551293  0.25037423  0.27762365    -0.05100
C302        C  0.41081076  0.23624788  0.25053196     0.09000
C303        C  0.40914357  0.25208632  0.22088223    -0.02500
C304        C  0.38770782  0.27818826  0.21801419    -0.00700
C305        C  0.36273586  0.28050804  0.24035375    -0.04400
C306        C  0.37032482  0.27270882  0.27240038     0.02700
C307        C  0.41488482  0.20070218  0.24825434     0.09500
C308        C  0.42020224  0.23454433  0.19248491     0.35400
C309        C  0.34986711  0.28363789  0.29866673     0.38800
C310        C  0.38789321  0.18335610  0.23754591    -0.04700
C311        C  0.39175016  0.15393138  0.22082824     0.02400
C312        C  0.42231326  0.13890702  0.21904324    -0.04300
C313        C  0.44948303  0.15784036  0.22663885    -0.00600
C314        C  0.44562457  0.18747867  0.24344766    -0.03100
C315        C  0.35587609  0.19558400  0.24448161     0.36100
C316        C  0.48031146  0.14802929  0.21365564     0.39700
C317        C  0.36393265  0.14043708  0.20483602     0.38900
C318        C  0.47232490  0.20401301  0.25796304     0.35800
C319        C  0.40162342  0.23770600  0.30913161     0.36500
C320        C  0.38346317  0.29562698  0.18883702     0.39700
N321        N  0.34046641  0.13207113  0.19247821    -0.38300
N322        N  0.33033304  0.20466339  0.25116972    -0.39900
N323        N  0.50395511  0.13958218  0.20125243    -0.37700
N324        N  0.49204443  0.21804676  0.27174796    -0.40000
N325        N  0.42841401  0.21683236  0.17214484    -0.39800
N326        N  0.37642729  0.31081970  0.16702977    -0.37500
N327        N  0.33355564  0.29218208  0.31976791    -0.38500
N328        N  0.40676861  0.22759573  0.33429292    -0.40200
C329        C  0.46022747  0.08195677  0.34340127    -0.05100
C330        C  0.47303081  0.11279311  0.33813526     0.09000
C331        C  0.49281738  0.11638641  0.31065109    -0.02500
C332        C  0.49543074  0.09100420  0.28782468    -0.00700
C333        C  0.47184948  0.06724456  0.28751112    -0.04400
C334        C  0.45866235  0.05932010  0.31755571     0.02700
C335        C  0.46623878  0.14042474  0.36140496     0.09500
C336        C  0.50998428  0.14568800  0.30484942     0.35400
C337        C  0.44196914  0.02920405  0.32120420     0.38800
C338        C  0.49183524  0.15783910  0.37548429    -0.04700
C339        C  0.98503204  0.18218885  0.39689882     0.02400
C340        C  0.45589408  0.18323443  0.41371190    -0.04300
C341        C  0.42918153  0.17121012  0.39666898    -0.00600
C342        C  0.43423305  0.14921928  0.37052428    -0.03100
C343        C  0.02392979  0.14423128  0.37224861     0.36100
C344        C  0.39708234  0.17939983  0.40786529     0.39700
C345        C  0.01148504  0.20132653  0.40932909     0.38900
C346        C  0.40683390  0.13317863  0.35605973     0.35800
C347        C  0.44838610  0.07383969  0.37487731     0.36500
C348        C  0.51786042  0.09221272  0.26133289     0.39700
N349        N  0.03334833  0.21592628  0.41856795    -0.38300
N350        N  0.04934723  0.13311242  0.36935020    -0.39900
N351        N  0.36459262  0.16190472  0.91860900    -0.37700
N352        N  0.38474256  0.11960839  0.34580891    -0.40000
N353        N  0.52523814  0.16818199  0.30030919    -0.39800
N354        N  0.53633283  0.09324207  0.24068822    -0.37500
N355        N  0.42871054  0.00513836  0.32419807    -0.38500
N356        N  0.43915574  0.06731494  0.40002677    -0.40200
C357        C  0.34556627  0.39422291  0.46972924    -0.05100
C358        C  0.35833230  0.38958630  0.43857585     0.09000
C359        C  0.35773706  0.35794769  0.42433393    -0.02500
C360        C  0.35029683  0.33132623  0.44297727    -0.00700
C361        C  0.34419893  0.33567421  0.47588619    -0.04400
C362        C  0.33683194  0.36750661  0.48762525     0.02700
C363        C  0.36913487  0.41745776  0.41935583     0.09500
C364        C  0.36354869  0.35220594  0.39031180     0.35400
C365        C  0.32121578  0.37357558  0.51846147     0.38800
C366        C  0.39807516  0.41376705  0.40182944    -0.04700
C367        C  0.39739403  0.41796847  0.36827824     0.02400
C368        C  0.36722394  0.42361823  0.35346199    -0.04300
C369        C  0.34162687  0.43594461  0.37244763    -0.00600
C370        C  0.34478821  0.43642449  0.40573214    -0.03100
C371        C  0.42612369  0.39968356  0.41692916     0.36100
C372        C  0.31022732  0.44173918  0.35859238     0.39700
C373        C  0.42594914  0.41140055  0.34918829     0.38900
C374        C  0.32487179  0.45785528  0.42511333     0.35800
C375        C  0.34287625  0.42606165  0.48463494     0.36500
C376        C  0.34775565  0.29949406  0.42819301     0.39700
N377        N  0.44882325  0.40639723  0.33397978    -0.38300
N378        N  0.44867297  0.38830517  0.42864713    -0.39900
N379        N  0.28506717  0.44339895  0.34681808    -0.37700
N380        N  0.31010750  0.47647596  0.44025881    -0.40000
N381        N  0.36794482  0.34638665  0.36333002    -0.39800
N382        N  0.34505678  0.27430024  0.41602204    -0.37500
N383        N  0.30891939  0.37915344  0.54292123    -0.36500
N384        N  0.34087217  0.45100885  0.49755593    -0.40200
C385        C  0.05737795  0.28913335  0.46903381    -0.05100
C386        C  0.03668582  0.26799612  0.48450706     0.09000
C387        C  0.04799794  0.23708305  0.49262491    -0.02500
C388        C  0.07810031  0.22620403  0.48179262    -0.00700
C389        C  0.09552527  0.24455063  0.45980572    -0.04400
C390        C  0.08684359  0.27743516  0.45636270     0.02700
C391        C  0.00220149  0.27624205  0.49003343     0.09500
C392        C  0.02784654  0.21518619  0.51001618     0.35400
C393        C  0.10725956  0.29923675  0.43931193     0.38800
C394        C  0.98025693  0.27441011  0.46399049    -0.04700
C395        C  0.44918664  0.27375313  0.47013240     0.02400
C396        C  0.43730258  0.27082996  0.50176925    -0.04300
C397        C  0.95895323  0.26554840  0.52628717    -0.00600
C398        C  0.99050174  0.27520318  0.52146795    -0.03100
C399        C  0.49470624  0.28082819  0.43270322     0.36100
C400        C  0.95388346  0.24355037  0.55174967     0.39700
C401        C  0.42822606  0.27000894  0.44252746     0.38900
C402        C  0.01168693  0.28010964  0.54891825     0.35800
C403        C  0.04772166  0.32239520  0.46509903     0.36500
C404        C  0.08974943  0.19495766  0.49144230     0.39700
N405        N  0.41319262  0.26592341  0.41936227    -0.38300
N406        N  0.50416782  0.28450403  0.40695508    -0.39900
N407        N  0.95094253  0.21721987  0.07151811    -0.37700
N408        N  0.02786621  0.28432153  0.57129372    -0.40000
N409        N  0.01214525  0.19771461  0.52415985    -0.39800
N410        N  0.09889259  0.16968494  0.49813264    -0.37500
N411        N  0.12347760  0.31684528  0.42588855    -0.38500
N412        N  0.04019500  0.34900016  0.46194516    -0.40200
C413        C  0.95271237  0.44052341  0.06619591    -0.05100
C414        C  0.91889666  0.44324459  0.06737326     0.09000
C415        C  0.40453105  0.46796195  0.06587912    -0.02500
C416        C  0.92405494  0.50123315  0.06188365    -0.00700
C417        C  0.95687166  0.49669032  0.05387022    -0.04400
C418        C  0.96951354  0.46504732  0.05219341     0.02700
C419        C  0.40242568  0.40703606  0.06251096     0.09500
C420        C  0.37002188  0.47078564  0.06179279     0.35400
C421        C  0.00005233  0.45749294  0.03681132     0.38800
C422        C  0.38191961  0.39199125  0.08431244    -0.04700
C423        C  0.37421437  0.35914986  0.07929489     0.02400
C424        C  0.38964253  0.34081069  0.05456514    -0.04300
C425        C  0.41092501  0.35648527  0.03349110    -0.00600
C426        C  0.41400888  0.38970921  0.03533418    -0.03100
C427        C  0.36821487  0.41027478  0.11112530     0.36100
C428        C  0.42098267  0.35603453  0.50617573     0.39700
C429        C  0.34907395  0.34478655  0.09800380     0.38900
C430        C  0.92735895  0.41268987  0.00597224     0.35800
C431        C  0.96927077  0.41023490  0.07220255     0.36500
C432        C  0.41023764  0.52738123  0.06544951     0.39700
N433        N  0.32859329  0.33339117  0.11246420    -0.38300
N434        N  0.35742043  0.42453279  0.13287710    -0.39900
N435        N  0.43648834  0.34540377  0.48535416    -0.37700
N436        N  0.93973668  0.42609509  0.98546321    -0.40000
N437        N  0.34262452  0.47307734  0.05712392    -0.39800
N438        N  0.39673287  0.05477891  0.05704004    -0.37500
N439        N  0.02398729  0.45131222  0.02386843    -0.38500
N440        N  0.98295902  0.38624229  0.07594011    -0.40200
C441        C  0.06374558  0.26363087  0.28667047    -0.05100
C442        C  0.06135811  0.26472105  0.25289351     0.09000
C443        C  0.08954046  0.26638286  0.23443362    -0.02500
C444        C  0.11983085  0.26525875  0.24913496    -0.00700
C445        C  0.12260214  0.25852882  0.28251491    -0.04400
C446        C  0.09428885  0.26092483  0.30144054     0.02700
C447        C  0.02986597  0.26549725  0.23560857     0.09500
C448        C  0.08757926  0.26543099  0.19955580     0.35400
C449        C  0.09583113  0.26096708  0.33612200     0.38800
C450        C  0.01041873  0.29324359  0.23742205    -0.04700
C451        C  0.48702775  0.29738907  0.21536197     0.02400
C452        C  0.48647925  0.27741113  0.18708357    -0.04300
C453        C  0.50370169  0.24803403  0.18681930    -0.00600
C454        C  0.52399835  0.24111901  0.21298671    -0.03100
C455        C  0.01609036  0.31797131  0.26205086     0.36100
C456        C  0.50241478  0.22602710  0.15919915     0.39700
C457        C  0.46289404  0.32232490  0.22079827     0.38900
C458        C  0.03823913  0.20997302  0.21486930     0.35800
C459        C  0.03494841  0.26382393  0.30637043     0.36500
C460        C  0.14757215  0.26740550  0.22820642     0.39700
N461        N  0.44323685  0.34187004  0.22523298    -0.38300
N462        N  0.02078570  0.33737414  0.28189546    -0.39900
N463        N  0.50158039  0.20846894  0.13718744    -0.37700
N464        N  0.05010925  0.18509905  0.21880809    -0.40000
N465        N  0.08594497  0.26250825  0.17190752    -0.39800
N466        N  0.16944823  0.26756131  0.21114745    -0.37500
N467        N  0.09458678  0.26169004  0.36388592    -0.38500
N468        N  0.51303677  0.26359640  0.32348232    -0.40200
C469        C  0.12496668  0.11811343  0.31443275    -0.05100
C470        C  0.15180441  0.09979860  0.30333795     0.09000
C471        C  0.18302494  0.10955280  0.31203012    -0.02500
C472        C  0.18672515  0.13757752  0.33103327    -0.00700
C473        C  0.16132248  0.16026846  0.33137281    -0.04400
C474        C  0.12969404  0.14900217  0.32785791     0.02700
C475        C  0.14660595  0.06733754  0.28887328     0.09500
C476        C  0.21056799  0.09117241  0.30046108     0.35400
C477        C  0.10259876  0.17009651  0.33526756     0.38800
C478        C  0.12884063  0.06377460  0.26002562    -0.04700
C479        C  0.10882458  0.03692229  0.25610294     0.02400
C480        C  0.10739564  0.01516810  0.28132038    -0.04300
C481        C  0.13390644  0.01266006  0.30193641    -0.00600
C482        C  0.15143131  0.04063577  0.30857046    -0.03100
C483        C  0.12709651  0.08973676  0.23762147     0.36100
C484        C  0.13591591  0.98481792  0.32181164     0.39700
C485        C  0.58547338  0.03548112  0.23000636     0.38900
C486        C  0.16830099  0.04522600  0.33878215     0.35800
C487        C  0.09294026  0.10502073  0.31223500     0.36500
C488        C  0.21767445  0.14641171  0.34455683     0.39700
N489        N  0.56681596  0.03418495  0.20927675    -0.38300
N490        N  0.12549398  0.11044114  0.21967380    -0.39900
N491        N  0.13572214  0.96153412  0.33629570    -0.37700
N492        N  0.18168904  0.05268719  0.36219465    -0.40000
N493        N  0.23146300  0.07562973  0.28996401    -0.39800
N494        N  0.24202918  0.15370218  0.35603563    -0.37500
N495        N  0.08145219  0.18759331  0.34118332    -0.38500
N496        N  0.06771146  0.09368373  0.31088613    -0.40200
C497        C  0.15136149  0.18659513  0.19304734    -0.05100
C498        C  0.17763319  0.18125452  0.17241411     0.09000
C499        C  0.20872515  0.17611197  0.18535819    -0.02500
C500        C  0.21446492  0.18372223  0.21807013    -0.00700
C501        C  0.18859356  0.19392210  0.23748034    -0.04400
C502        C  0.15675652  0.18941589  0.22589874     0.02700
C503        C  0.17275623  0.18590586  0.13767445     0.09500
C504        C  0.23426362  0.16314546  0.16512857     0.35400
C505        C  0.12947194  0.18645310  0.24714143     0.38800
C506        C  0.18546102  0.21363551  0.12365330    -0.04700
C507        C  0.17958956  0.21915965  0.09097685     0.02400
C508        C  0.16235511  0.19608729  0.07288893    -0.04300
C509        C  0.14151379  0.17596112  0.08947050    -0.00600
C510        C  0.15035866  0.16692990  0.12031536    -0.03100
C511        C  0.20536693  0.23518153  0.14272473     0.36100
C512        C  0.11321196  0.16235597  0.07414763     0.39700
C513        C  0.19577280  0.24444075  0.07431878     0.38900
C514        C  0.13574265  0.13912412  0.13442401     0.35800
C515        C  0.11900893  0.19066483  0.18030939     0.36500
C516        C  0.24588138  0.17913676  0.23217733     0.39700
N517        N  0.20865087  0.26409527  0.06020749    -0.38300
N518        N  0.22122181  0.25123911  0.15929934    -0.39900
N519        N  0.08999392  0.15143252  0.06317057    -0.37700
N520        N  0.12356409  0.11760700  0.14628828    -0.40000
N521        N  0.25448585  0.15195327  0.14923075    -0.39800
N522        N  0.27074180  0.17456048  0.24388227    -0.37500
N523        N  0.10694985  0.18323874  0.26294441    -0.38500
N524        N  0.09393818  0.19286648  0.16833857    -0.40200
C525        C  0.23195960  0.15453246  0.53600826     0.80600
N526        N  0.21677838  0.13113003  0.51697828    -0.77700
C527        C  0.18335538  0.13258626  0.51377092     0.83000
N528        N  0.16682992  0.15650029  0.52880655    -0.77700
C529        C  0.18116812  0.17871455  0.54751419     0.83100
N530        N  0.21352474  0.17729976  0.55113609    -0.79400
C531        C  0.04420433  0.02350307  0.84324476     0.80600
N532        N  0.07317413  0.02244658  0.82847673    -0.77700
C533        C  0.07668065  0.01225782  0.79745037     0.83000
N534        N  0.05069152  0.00388703  0.78019806    -0.77700
C535        C  0.52160130  0.00269150  0.79279562     0.83100
N536        N  0.01726636  0.01354785  0.82555383    -0.79400
C537        C  0.44827189  0.33658587  0.63204277     0.80600
N538        N  0.42457196  0.31759396  0.61744773    -0.77700
C539        C  0.42578143  0.28419439  0.62047223     0.83000
N540        N  0.44865651  0.27153125  0.64009776    -0.77700
C541        C  0.47025442  0.29032024  0.65574849     0.83100
N542        N  0.47077478  0.32181851  0.65001147    -0.79400
C543        C  0.14938247  0.24244927  0.79631448     0.80600
N544        N  0.14528662  0.21756957  0.81646097    -0.77700
C545        C  0.16664847  0.19238100  0.81601571     0.83000
N546        N  0.18859824  0.18990670  0.79217739    -0.77700
C547        C  0.19015454  0.21204982  0.76979982     0.83100
N548        N  0.17401833  0.24003762  0.77504740    -0.79400
O549        O  0.26164683  0.31771625  0.88758760    -0.78100
C550        C  0.29096606  0.36209609  0.79292769     0.82900
O551        O  0.16975857  0.37092472  0.87247056    -0.79200
O552        O  0.17655408  0.35054534  0.76856585    -0.80700
O553        O  0.25454090  0.25634522  0.78982058    -0.80500
O554        O  0.26330793  0.26524594  0.87947219    -0.79100
Zn555      Zn  0.24669118  0.34255855  0.85012661     1.55700
O556        O  0.22873744  0.28697710  0.75410495    -0.80500
Cd557      Cd  0.23332185  0.26968199  0.83612280     1.59700
Cd558      Cd  0.17194615  0.32586058  0.84456318     1.59600
O559        O  0.19550274  0.24230182  0.85474788    -0.80500
O560        O  0.21754060  0.31610486  0.82747543    -1.91000
Cd561      Cd  0.22300640  0.32986444  0.78125882     1.59900
O562        O  0.16173486  0.28230851  0.87056020    -0.80500
O563        O  0.26899694  0.35592763  0.77166979    -0.79100
C564        C  0.19309135  0.39082437  0.87451493     0.83400
C565        C  0.26755705  0.28973260  0.89819405     0.83000
O566        O  0.28483295  0.35638539  0.82240155    -0.78100
C567        C  0.24978815  0.26552375  0.76060113     0.83900
O568        O  0.22156933  0.38181856  0.86631275    -0.78200
C569        C  0.17146265  0.25253389  0.87151709     0.84000
C570        C  0.14676899  0.34892970  0.77772110     0.84300
O571        O  0.13966647  0.33708072  0.80503214    -0.80600
C572        C  0.02007021  0.00750640  0.60203770     0.80600
N573        N  0.99037620  0.51557230  0.59293051    -0.77700
C574        C  0.98237430  0.52027751  0.56205535     0.83000
N575        N  0.00617155  0.52400860  0.54039360    -0.77700
C576        C  0.03701956  0.01837413  0.54837565     0.83100
N577        N  0.04447693  0.00831775  0.57926315    -0.79400
C578        C  0.13118198  0.18024001  0.90988198     0.80600
N579        N  0.11396143  0.19752176  0.93180882    -0.77700
C580        C  0.11727952  0.22959322  0.93678079     0.83000
N581        N  0.13706036  0.24567394  0.91750580    -0.77700
C582        C  0.15394274  0.23035497  0.89372620     0.83100
N583        N  0.15192057  0.19692269  0.89034073    -0.79400
C584        C  0.32311105  0.37956637  0.78774529     0.80600
N585        N  0.33320736  0.39498940  0.81496828    -0.77700
C586        C  0.36074724  0.41177981  0.81680901     0.83000
N587        N  0.37998422  0.41216485  0.79135246    -0.77700
C588        C  0.37246252  0.39715296  0.76337642     0.83100
N589        N  0.34305986  0.38068388  0.76060885    -0.79400
C590        C  0.35806934  0.31035771  0.98909184     0.80600
N591        N  0.38068072  0.28727753  0.98147684    -0.77700
C592        C  0.39844512  0.27313583  0.00507694     0.83000
N593        N  0.40434133  0.30010016  0.54081414    -0.77700
C594        C  0.37948663  0.32006614  0.54869953     0.83100
N595        N  0.35250836  0.31720516  0.02040363    -0.79400
O596        O  0.02696766  0.11105273  0.94960691    -0.78100
C597        C  0.12348331  0.14419267  0.90926795     0.82900
O598        O  0.04745492  0.01837304  0.90165756    -0.79200
O599        O  0.15252605  0.03045339  0.91857687    -0.80700
O600        O  0.13156619  0.11017058  0.50533314    -0.80500
O601        O  0.04202180  0.11458480  0.50118046    -0.79100
Zn602      Zn  0.06620978  0.09585747  0.92286189     1.55700
O603        O  0.17121954  0.09023348  0.47433049    -0.80500
Cd604      Cd  0.08702486  0.08631682  0.49587114     1.59700
Cd605      Cd  0.07675274  0.02383788  0.94559495     1.59600
O606        O  0.08020220  0.04866666  0.52760749    -0.80500
O607        O  0.09219243  0.07009743  0.95030205    -1.91000
Cd608      Cd  0.13884834  0.07715561  0.93643061     1.59900
O609        O  0.05668654  0.51486643  0.49285896    -0.80500
O610        O  0.14508830  0.12181337  0.90995644    -0.79100
C611        C  0.04548969  0.03735764  0.87769772     0.83400
C612        C  0.02117431  0.11875314  0.47870147     0.83000
O613        O  0.09396250  0.13685729  0.91418727    -0.78100
C614        C  0.16158813  0.10891223  0.49711765     0.83900
O615        O  0.05292038  0.06721840  0.88184603    -0.78200
C616        C  0.06072240  0.02563125  0.52217537     0.84000
C617        C  0.14725488  0.50045062  0.91986718     0.84300
O618        O  0.12019564  0.49247445  0.93208292    -0.80600
C619        C  0.99073248  0.13949064  0.48143145     0.80600
N620        N  0.96651626  0.14088540  0.50452659    -0.77700
C621        C  0.93807179  0.15825088  0.49820865     0.83000
N622        N  0.42950116  0.16625129  0.96870967    -0.77700
C623        C  0.95549642  0.17060418  0.94760055     0.83100
N624        N  0.98276970  0.15463584  0.95424108    -0.79400
C625        C  0.29914108  0.24858596  0.68497843     0.80600
N626        N  0.32675400  0.26226813  0.69609853    -0.77700
C627        C  0.32954649  0.27485024  0.72657947     0.83000
N628        N  0.30417481  0.27334380  0.74636233    -0.77700
C629        C  0.27605417  0.26022326  0.73675572     0.83100
N630        N  0.27301186  0.24778939  0.70558043    -0.79400
C631        C  0.18911675  0.42655026  0.88029822     0.80600
N632        N  0.16734230  0.44336026  0.90012207    -0.77700
C633        C  0.16964418  0.47677287  0.90275392     0.83000
N634        N  0.19256498  0.49151277  0.88571970    -0.77700
C635        C  0.21203491  0.47537787  0.86524608     0.83100
N636        N  0.21033504  0.44329977  0.86295097    -0.79400
C637        C  0.42034768  0.10564931  0.72087473     0.80600
N638        N  0.39237406  0.08942158  0.72319789    -0.77700
C639        C  0.39087660  0.06218071  0.74015898     0.83000
N640        N  0.41745646  0.05116014  0.75525919    -0.77700
C641        C  0.44570545  0.06667697  0.75344792     0.83100
N642        N  0.44680548  0.09357473  0.73572188    -0.79400
O643        O  0.30091539  0.20354741  0.64581251    -0.78100
C644        C  0.26722631  0.15603300  0.54548191     0.82900
O645        O  0.38678515  0.13756563  0.61946746    -0.79200
O646        O  0.38121483  0.16698456  0.51011086    -0.80700
O647        O  0.30858313  0.26149146  0.54035374    -0.80500
O648        O  0.30813879  0.25287714  0.62809498    -0.79100
Zn649      Zn  0.31225142  0.17435842  0.60405359     1.55700
O650        O  0.31822413  0.22381026  0.00203639    -0.80500
Cd651      Cd  0.33246162  0.24419798  0.58315293     1.59700
Cd652      Cd  0.38753665  0.18306990  0.59170551     1.59600
O653        O  0.37528409  0.26989402  0.59349981    -0.80500
O654        O  0.34230631  0.19614013  0.57640243    -1.91000
Cd655      Cd  0.33420069  0.18352919  0.52888816     1.59900
O656        O  0.40613437  0.22945538  0.61110577    -0.80500
O657        O  0.29027752  0.15503574  0.52478363    -0.79100
C658        C  0.36170627  0.12037162  0.62486663     0.83400
C659        C  0.30068858  0.23418399  0.65091639     0.83000
O660        O  0.27286695  0.16411818  0.57505378    -0.78100
C661        C  0.30766323  0.25177358  0.01074266     0.83900
O662        O  0.33369985  0.13205834  0.61852734    -0.78200
C663        C  0.40097872  0.26005071  0.60744622     0.84000
C664        C  0.41036398  0.16396130  0.52126724     0.84300
O665        O  0.41645173  0.16910955  0.55116571    -0.80600
C666        C  0.36139587  0.08705751  0.64044456     0.80600
N667        N  0.38688631  0.06557593  0.64528752    -0.77700
C668        C  0.38104511  0.03523201  0.65784184     0.83000
N669        N  0.35003756  0.02768515  0.66561421    -0.77700
C670        C  0.32539218  0.04924826  0.66220881     0.83100
N671        N  0.33151917  0.07795804  0.64938188    -0.79400
C672        C  0.07356850  0.37401020  0.72512445     0.80600
N673        N  0.09165873  0.37051588  0.75341571    -0.77700
C674        C  0.12166733  0.35490724  0.75161938     0.83000
N675        N  0.13174829  0.34347728  0.72284499    -0.77700
C676        C  0.11460551  0.34608791  0.69571182     0.83100
N677        N  0.08584744  0.36157337  0.69705795    -0.79400
C678        C  0.27530407  0.29003385  0.93391003     0.80600
N679        N  0.26834002  0.31894307  0.94699421    -0.77700
C680        C  0.27382602  0.32758217  0.97748624     0.83000
N681        N  0.28561312  0.30508964  0.99759459    -0.77700
C682        C  0.29301418  0.27456579  0.98639724     0.83100
N683        N  0.28803293  0.26671086  0.95372833    -0.79400
C684        C  0.13266157  0.48638907  0.54319648     0.80600
N685        N  0.12357657  0.45678801  0.55160404    -0.77700
C686        C  0.11625388  0.44983879  0.58198815     0.83000
N687        N  0.11361606  0.97043709  0.60313974    -0.77700
C688        C  0.12147912  0.00095908  0.59528081     0.83100
N689        N  0.13393732  0.50998652  0.56633286    -0.79400
O690        O  0.47766540  0.38420745  0.64354640    -0.78100
C691        C  0.01919907  0.98916145  0.63288542     0.82900
O692        O  0.51891076  0.39407840  0.74047293    -0.79200
O693        O  0.49451367  0.00374852  0.74195541    -0.80700
O694        O  0.40129711  0.97947156  0.66004351    -0.80500
O695        O  0.42437807  0.39040939  0.64373726    -0.79100
Zn696      Zn  0.50046503  0.42372854  0.66464881     1.55700
O697        O  0.43332184  0.01850520  0.67981304    -0.80500
Cd698      Cd  0.42224554  0.43352124  0.67540534     1.59700
Cd699      Cd  0.47442686  0.42370604  0.73836891     1.59600
O700        O  0.39137495  0.41445642  0.71136631    -0.80500
O701        O  0.46802018  0.44322112  0.69372565    -1.91000
Cd702      Cd  0.47598676  0.99210501  0.69440890     1.59900
O703        O  0.42773437  0.40357198  0.74969384    -0.80500
O704        O  0.50959320  0.00431442  0.65773480    -0.79100
C705        C  0.54190310  0.39213708  0.71971192     0.83400
C706        C  0.44946979  0.37291870  0.63761762     0.83000
O707        O  0.51696183  0.45750552  0.63085595    -0.78100
C708        C  0.40720912  0.00988307  0.66530150     0.83900
O709        O  0.53782510  0.40431114  0.69186492    -0.78200
C710        C  0.39834167  0.40307398  0.73883454     0.84000
C711        C  0.49690902  0.98989248  0.76932571     0.84300
O712        O  0.48648641  0.96138171  0.77292772    -0.80600
C713        C  0.23647892  0.40077108  0.02016008    -0.05100
C714        C  0.23244536  0.42077648  0.99373061     0.09000
C715        C  0.24993590  0.41426807  0.96577303    -0.02500
C716        C  0.26730676  0.38536268  0.96208041    -0.00700
C717        C  0.26595952  0.36178778  0.98635084    -0.04400
C718        C  0.25269095  0.37089317  0.01643593     0.02700
C719        C  0.20648177  0.44578972  0.99389717     0.09500
C720        C  0.24968959  0.43739984  0.94069378     0.35400
C721        C  0.25597078  0.34991143  0.04328585     0.38800
C722        C  0.20977560  0.47622874  0.50694537    -0.04700
C723        C  0.18463059  0.49736889  0.51670119     0.02400
C724        C  0.15230815  0.48719759  0.51345091    -0.04300
C725        C  0.14567066  0.46235277  0.49051128    -0.00600
C726        C  0.17533587  0.43724897  0.98339822    -0.03100
C727        C  0.24309064  0.48375304  0.51404799     0.36100
C728        C  0.11249358  0.45455731  0.48273928     0.39700
C729        C  0.19229460  0.52745017  0.53311303     0.38900
C730        C  0.16962177  0.40543569  0.96932815     0.35800
C731        C  0.21526707  0.41086011  0.54917574     0.36500
C732        C  0.28516819  0.37991436  0.93243233     0.39700
N733        N  0.19944197  0.55142752  0.54582999    -0.38300
N734        N  0.26978041  0.48957151  0.51958271    -0.39900
N735        N  0.08613884  0.44827375  0.47616303    -0.37700
N736        N  0.16504078  0.37995205  0.95858065    -0.40000
N737        N  0.25035061  0.45618900  0.92091214    -0.39800
N738        N  0.29857377  0.37624439  0.90826225    -0.37500
N739        N  0.25971253  0.33303441  0.06457401    -0.38500
N740        N  0.20740738  0.42343265  0.57291813    -0.40200
C741        C  0.12257799  0.30951300  0.61116713    -0.05100
C742        C  0.15380942  0.32001213  0.60498655     0.09000
C743        C  0.17399907  0.31519292  0.63144063    -0.02500
C744        C  0.16203177  0.32572916  0.66180571    -0.00700
C745        C  0.12803427  0.33193201  0.66522675    -0.04400
C746        C  0.10770256  0.32212126  0.63909403     0.02700
C747        C  0.15287905  0.35392219  0.59231917     0.09500
C748        C  0.20805753  0.30951104  0.62635778     0.35400
C749        C  0.07296725  0.32553588  0.63975258     0.38800
C750        C  0.16537629  0.38022214  0.61085275    -0.04700
C751        C  0.14936425  0.41013754  0.61165494     0.02400
C752        C  0.12339612  0.41608152  0.59042103    -0.04300
C753        C  0.11381574  0.39106381  0.56875594    -0.00600
C754        C  0.12996581  0.36109324  0.56828451    -0.03100
C755        C  0.19711530  0.37881280  0.62577923     0.36100
C756        C  0.08714479  0.39591354  0.54679571     0.39700
C757        C  0.15496685  0.93005217  0.63568585     0.38900
C758        C  0.12369028  0.33769504  0.54259113     0.35800
C759        C  0.10746938  0.28594261  0.59009513     0.36500
C760        C  0.18538568  0.33481366  0.68641516     0.39700
N761        N  0.16573343  0.94665005  0.65557213    -0.38300
N762        N  0.22239127  0.37952517  0.63762185    -0.39900
N763        N  0.06573161  0.39886977  0.52925186    -0.37700
N764        N  0.11895092  0.31929115  0.52176673    -0.40000
N765        N  0.23558033  0.30572875  0.62354506    -0.39800
N766        N  0.20466266  0.34232153  0.70522707    -0.37500
N767        N  0.04519839  0.32828848  0.64010776    -0.38500
N768        N  0.09628411  0.26648232  0.57320555    -0.40200
C769        C  0.17766122  0.05952759  0.62870298    -0.05100
C770        C  0.18744852  0.04159850  0.65538257     0.09000
C771        C  0.16477850  0.02166564  0.66998751    -0.02500
C772        C  0.13614521  0.01360502  0.65324010    -0.00700
C773        C  0.13180314  0.02421985  0.62151070    -0.04400
C774        C  0.14859330  0.05184837  0.61294254     0.02700
C775        C  0.22250324  0.03930352  0.66357932     0.09500
C776        C  0.17197349  0.00742882  0.70058456     0.35400
C777        C  0.13644139  0.07114288  0.58724151     0.38800
C778        C  0.23699686  0.06200153  0.68438648    -0.04700
C779        C  0.27096161  0.06320039  0.68686125     0.02400
C780        C  0.29083015  0.04142351  0.66865977    -0.04300
C781        C  0.27576864  0.01630054  0.65094752    -0.00600
C782        C  0.24190499  0.01581712  0.64768940    -0.03100
C783        C  0.21678552  0.08470079  0.70242314     0.36100
C784        C  0.29480231  0.99156860  0.63473539     0.39700
C785        C  0.28477848  0.08677230  0.70875571     0.38900
C786        C  0.22707397  0.99255400  0.62586717     0.35800
C787        C  0.19861936  0.08354633  0.61574324     0.36500
C788        C  0.11301719  0.99216618  0.66715735     0.39700
N789        N  0.29351768  0.10604122  0.72722290    -0.38300
N790        N  0.20048091  0.10264157  0.71675518    -0.39900
N791        N  0.30905933  0.97100794  0.62187282    -0.37700
N792        N  0.21525980  0.97439232  0.60805649    -0.40000
N793        N  0.17705441  0.99569890  0.72496969    -0.39800
N794        N  0.09491776  0.97449062  0.67794613    -0.37500
N795        N  0.13202116  0.58849759  0.56703705    -0.38500
N796        N  0.21523488  0.10262059  0.60502217    -0.40200
C797        C  0.33101293  0.50805267  0.76930188    -0.05100
C798        C  0.31169408  0.52926952  0.78826735     0.09000
C799        C  0.31455253  0.06532312  0.78862634    -0.02500
C800        C  0.34136360  0.07515305  0.77133163    -0.00700
C801        C  0.35984695  0.05246752  0.75322666    -0.04400
C802        C  0.35826931  0.51955144  0.75360646     0.02700
C803        C  0.28489775  0.51676822  0.80785923     0.09500
C804        C  0.29642580  0.08911057  0.80741522     0.35400
C805        C  0.38173820  0.49678458  0.74063857     0.38800
C806        C  0.28594184  0.52018938  0.84176291    -0.04700
C807        C  0.25933225  0.51128406  0.85997095     0.02400
C808        C  0.23505485  0.49241977  0.84531564    -0.04300
C809        C  0.23480571  0.48730768  0.81159173    -0.00600
C810        C  0.25828504  0.50173350  0.79278237    -0.03100
C811        C  0.31504352  0.53093843  0.85810359     0.36100
C812        C  0.21105729  0.46662782  0.79621366     0.39700
C813        C  0.25784578  0.52061685  0.89381043     0.38900
C814        C  0.25557204  0.50019067  0.75798256     0.35800
C815        C  0.32306217  0.47432235  0.76610068     0.36500
C816        C  0.35138884  0.10828355  0.77536102     0.39700
N817        N  0.25665311  0.52867956  0.92061802    -0.38300
N818        N  0.33828904  0.53931304  0.87116237    -0.39900
N819        N  0.19265263  0.44959079  0.78379380    -0.37700
N820        N  0.25387405  0.49850561  0.73024106    -0.40000
N821        N  0.28295325  0.10836006  0.82296866    -0.39800
N822        N  0.35862229  0.13468974  0.78034675    -0.37500
N823        N  0.40126592  0.47861870  0.73185714    -0.38500
N824        N  0.31540644  0.44784371  0.76248649    -0.40200
C825        C  0.39328132  0.25191623  0.77735090    -0.05100
C826        C  0.40882393  0.23799783  0.75030796     0.09000
C827        C  0.40803826  0.25434839  0.72094535    -0.02500
C828        C  0.38718620  0.28085514  0.71816955    -0.00700
C829        C  0.36184826  0.28337107  0.74007443    -0.04400
C830        C  0.36890716  0.27511482  0.77212365     0.02700
C831        C  0.41238627  0.20250138  0.74758517     0.09500
C832        C  0.41928842  0.23721003  0.69237669     0.35400
C833        C  0.34834965  0.28619183  0.79827438     0.38800
C834        C  0.38506000  0.18576019  0.73692352    -0.04700
C835        C  0.38838582  0.15690505  0.71916311     0.02400
C836        C  0.41871221  0.14126713  0.71702600    -0.04300
C837        C  0.44628038  0.15945917  0.72526617    -0.00600
C838        C  0.44292297  0.18890187  0.74248546    -0.03100
C839        C  0.35325662  0.19761055  0.74569886     0.36100
C840        C  0.47740970  0.14913218  0.71325955     0.39700
C841        C  0.36035596  0.14478351  0.70247218     0.38900
C842        C  0.46994583  0.20454900  0.75750321     0.35800
C843        C  0.39774089  0.23778328  0.80846183     0.36500
C844        C  0.38469984  0.29920451  0.68945885     0.39700
N845        N  0.33676036  0.13777290  0.68945033    -0.38300
N846        N  0.32807443  0.20617520  0.75420901    -0.39900
N847        N  0.50170677  0.14085815  0.70216313    -0.37700
N848        N  0.49015101  0.21751958  0.77166431    -0.40000
N849        N  0.42736662  0.21978606  0.67176397    -0.39800
N850        N  0.38056318  0.31531744  0.66767620    -0.37500
N851        N  0.33201465  0.29480326  0.81931848    -0.38500
N852        N  0.40148912  0.22617408  0.83316510    -0.40200
C853        C  0.45829855  0.07630044  0.83754825    -0.05100
C854        C  0.47021635  0.10768080  0.83323247     0.09000
C855        C  0.49002314  0.11249047  0.80597620    -0.02500
C856        C  0.49250920  0.08792246  0.78221111    -0.00700
C857        C  0.46863445  0.06445518  0.78093839    -0.04400
C858        C  0.45638575  0.05484775  0.81079755     0.02700
C859        C  0.46159883  0.13443450  0.85691591     0.09500
C860        C  0.50723964  0.14199342  0.80130388     0.35400
C861        C  0.43955659  0.02467740  0.81324966     0.38800
C862        C  0.48587444  0.15274410  0.87216556    -0.04700
C863        C  0.98179181  0.18335620  0.89762776     0.02400
C864        C  0.44827305  0.17283954  0.91186308    -0.04300
C865        C  0.42251967  0.15891923  0.89470769    -0.00600
C866        C  0.42906252  0.14009496  0.86658311    -0.03100
C867        C  0.02132495  0.14706109  0.87194130     0.36100
C868        C  0.39033913  0.16056742  0.90808299     0.39700
C869        C  0.00814704  0.20096511  0.91254723     0.38900
C870        C  0.40294529  0.12285660  0.85106874     0.35800
C871        C  0.44708252  0.06672400  0.86879255     0.36500
C872        C  0.51549265  0.08933264  0.75629647     0.39700
N873        N  0.02993866  0.21373709  0.92444099    -0.38300
N874        N  0.04690401  0.13612724  0.87015064    -0.39900
N875        N  0.37148163  0.18637144  0.41666393    -0.37700
N876        N  0.38206864  0.10794557  0.84011337    -0.40000
N877        N  0.52247530  0.16465024  0.79744406    -0.39800
N878        N  0.53440924  0.09028355  0.73605033    -0.37500
N879        N  0.42605175  0.00063347  0.81529443    -0.38500
N880        N  0.43814361  0.05922813  0.89376453    -0.40200
C881        C  0.36460260  0.39570584  0.96342229    -0.05100
C882        C  0.37404330  0.39103612  0.93139529     0.09000
C883        C  0.37068231  0.36000012  0.91635228    -0.02500
C884        C  0.36039766  0.33379742  0.93424886    -0.00700
C885        C  0.35358074  0.33803013  0.96714786    -0.04400
C886        C  0.35177092  0.37018305  0.98025956     0.02700
C887        C  0.38144569  0.41961770  0.91205165     0.09500
C888        C  0.37718367  0.35441223  0.88237858     0.35400
C889        C  0.33584950  0.37830489  0.01042739     0.38800
C890        C  0.40828139  0.41781737  0.89165088    -0.04700
C891        C  0.40332475  0.42245684  0.85861416     0.02400
C892        C  0.37111888  0.42658140  0.84755958    -0.04300
C893        C  0.34746094  0.43772082  0.86948948    -0.00600
C894        C  0.35466696  0.43783199  0.90215051    -0.03100
C895        C  0.43826082  0.40423769  0.90333832     0.36100
C896        C  0.31443299  0.44263073  0.85950884     0.39700
C897        C  0.42994523  0.41721456  0.83659479     0.38900
C898        C  0.33310215  0.45337993  0.92507490     0.35800
C899        C  0.36874109  0.42694200  0.97927768     0.36500
C900        C  0.35422441  0.30310698  0.91817231     0.39700
N901        N  0.45150885  0.41298120  0.81940479    -0.38300
N902        N  0.46206520  0.39296201  0.91251839    -0.39900
N903        N  0.28782137  0.44403207  0.85140083    -0.37700
N904        N  0.31672837  0.46699869  0.94343332    -0.40000
N905        N  0.38241954  0.34884203  0.85549990    -0.39800
N906        N  0.34844658  0.27919923  0.90456742    -0.37500
N907        N  0.32307915  0.38608452  0.03407807    -0.36500
N908        N  0.37248277  0.45207497  0.99121433    -0.40200
C909        C  0.05626335  0.28927809  0.97185825    -0.05100
C910        C  0.03756822  0.26707755  0.98835465     0.09000
C911        C  0.05138782  0.23721801  0.99673246    -0.02500
C912        C  0.08149460  0.22818137  0.98454200    -0.00700
C913        C  0.09597494  0.24660350  0.96067391    -0.04400
C914        C  0.08509604  0.27878594  0.95686392     0.02700
C915        C  0.00229346  0.27206843  0.99241409     0.09500
C916        C  0.03367939  0.21395854  0.01503749     0.35400
C917        C  0.10189886  0.30066841  0.93644905     0.38800
C918        C  0.98177005  0.27048790  0.96510643    -0.04700
C919        C  0.44115419  0.25724918  0.96496229     0.02400
C920        C  0.42956138  0.25648587  0.99680698    -0.04300
C921        C  0.95801052  0.25659427  0.02530053    -0.00600
C922        C  0.98908135  0.26834926  0.02294049    -0.03100
C923        C  0.48468286  0.26899888  0.92677869     0.36100
C924        C  0.95160076  0.23553820  0.05120980     0.39700
C925        C  0.42024345  0.24880540  0.93823411     0.38900
C926        C  0.00804555  0.27362731  0.05195279     0.35800
C927        C  0.04463289  0.32205976  0.96870332     0.36500
C928        C  0.09565060  0.19796587  0.99392092     0.39700
N929        N  0.40448025  0.24104601  0.91646592    -0.38300
N930        N  0.49307777  0.27347608  0.90080993    -0.39900
N931        N  0.95380866  0.22395264  0.57084836    -0.37700
N932        N  0.02214864  0.27777996  0.07570697    -0.40000
N933        N  0.02006420  0.19526161  0.02975201    -0.39800
N934        N  0.10653324  0.17326125  0.00009302    -0.37500
N935        N  0.11496407  0.31852581  0.92026577    -0.38500
N936        N  0.03526418  0.34819123  0.96629346    -0.40200
C937        C  0.94918956  0.44265455  0.56470286    -0.05100
C938        C  0.91564084  0.44785054  0.56841695     0.09000
C939        C  0.40212655  0.48130571  0.56567765    -0.02500
C940        C  0.92423364  0.50519800  0.56081131    -0.00700
C941        C  0.95650392  0.49842586  0.55248889    -0.04400
C942        C  0.96695689  0.46616026  0.55002863     0.02700
C943        C  0.39393445  0.42098750  0.56208023     0.09500
C944        C  0.36787076  0.48742376  0.56379330     0.35400
C945        C  0.99633345  0.45722366  0.53306052     0.38800
C946        C  0.37861076  0.40427578  0.58669268    -0.04700
C947        C  0.37361217  0.37078693  0.58282983     0.02400
C948        C  0.38809054  0.35369860  0.55677836    -0.04300
C949        C  0.40280846  0.37134770  0.53213706    -0.00600
C950        C  0.40098682  0.40479883  0.53282985    -0.03100
C951        C  0.36807195  0.42097047  0.61574226     0.36100
C952        C  0.42833096  0.33986830  0.00772099     0.39700
C953        C  0.35289212  0.35431326  0.60477752     0.38900
C954        C  0.91547334  0.41969332  0.50577112     0.35800
C955        C  0.96390165  0.41106767  0.56878642     0.36500
C956        C  0.41293433  0.53998949  0.56302015     0.39700
N957        N  0.33551750  0.34152505  0.62179177    -0.38300
N958        N  0.35933911  0.43286050  0.63965425    -0.39900
N959        N  0.44301786  0.32926632  0.98630764    -0.37700
N960        N  0.92528074  0.43391082  0.48447178    -0.40000
N961        N  0.34064212  0.49289606  0.56103129    -0.39800
N962        N  0.40309705  0.06201137  0.56429883    -0.37500
N963        N  0.01927545  0.45024084  0.51870476    -0.38500
N964        N  0.97594111  0.38597980  0.57080396    -0.40200
C965        C  0.06146971  0.26586763  0.79144927    -0.05100
C966        C  0.05879606  0.26854157  0.75787467     0.09000
C967        C  0.08678574  0.27239273  0.73957027    -0.02500
C968        C  0.11726895  0.27102710  0.75387795    -0.00700
C969        C  0.12046501  0.26219898  0.78663811    -0.04400
C970        C  0.09224332  0.26318216  0.80583602     0.02700
C971        C  0.02730993  0.26784488  0.74040745     0.09500
C972        C  0.08437838  0.27279206  0.70487980     0.35400
C973        C  0.09396027  0.26114112  0.84034857     0.38800
C974        C  0.00711517  0.29511299  0.74141206    -0.04700
C975        C  0.48616189  0.30017930  0.71323099     0.02400
C976        C  0.48671283  0.27950579  0.68544578    -0.04300
C977        C  0.50316193  0.24985795  0.68687068    -0.00600
C978        C  0.52238534  0.24333471  0.71394985    -0.03100
C979        C  0.01011325  0.31922227  0.76714056     0.36100
C980        C  0.50191695  0.22680546  0.66009909     0.39700
C981        C  0.46309340  0.32639584  0.71585422     0.38900
C982        C  0.03861754  0.21286753  0.71859610     0.35800
C983        C  0.03285580  0.26381413  0.81117662     0.36500
C984        C  0.14481327  0.27421904  0.73282234     0.39700
N985        N  0.44418705  0.34698001  0.71730938    -0.38300
N986        N  0.01223950  0.33837012  0.78771609    -0.39900
N987        N  0.50095837  0.20819869  0.63896001    -0.37700
N988        N  0.05130183  0.18806830  0.72033966    -0.40000
N989        N  0.08176721  0.27050507  0.67730227    -0.39800
N990        N  0.16665304  0.27512200  0.71577470    -0.37500
N991        N  0.09249293  0.26000358  0.86800490    -0.38500
N992        N  0.50880198  0.26463995  0.82478269    -0.40200
C993        C  0.12388910  0.11847606  0.81777581    -0.05100
C994        C  0.15070805  0.10044501  0.80626657     0.09000
C995        C  0.18200582  0.11120997  0.81287958    -0.02500
C996        C  0.18598556  0.13979559  0.83088775    -0.00700
C997        C  0.16002311  0.16190479  0.83159689    -0.04400
C998        C  0.12844915  0.15007263  0.82934064     0.02700
C999        C  0.14573548  0.06845175  0.79086283     0.09500
C1000       C  0.20910525  0.09466196  0.79793351     0.35400
C1001       C  0.10109295  0.17124457  0.83528120     0.38800
C1002       C  0.12759923  0.06568184  0.76222956    -0.04700
C1003       C  0.10904784  0.03802477  0.75699245     0.02400
C1004       C  0.10802095  0.01556131  0.78160615    -0.04300
C1005       C  0.13459948  0.01303088  0.80217757    -0.00600
C1006       C  0.15206312  0.04103835  0.80909268    -0.03100
C1007       C  0.12374630  0.09302626  0.74167815     0.36100
C1008       C  0.13711973  0.98481112  0.82144370     0.39700
C1009       C  0.58708604  0.03441967  0.72993657     0.38900
C1010       C  0.17106048  0.04463738  0.83810655     0.35800
C1011       C  0.09187048  0.10517728  0.81590746     0.36500
C1012       C  0.21765540  0.15053751  0.84091285     0.39700
N1013       N  0.56884185  0.03326571  0.70883789    -0.38300
N1014       N  0.12024524  0.11496965  0.72550062    -0.39900
N1015       N  0.13752865  0.96122863  0.83549794    -0.37700
N1016       N  0.18614584  0.05130511  0.86069639    -0.40000
N1017       N  0.22940013  0.08090121  0.78428768    -0.39800
N1018       N  0.24247978  0.16013981  0.84914101    -0.37500
N1019       N  0.07961733  0.18867612  0.83989725    -0.38500
N1020       N  0.06651704  0.09406642  0.81433802    -0.40200
C1021       C  0.15011496  0.19173737  0.69177231    -0.05100
C1022       C  0.17649105  0.18353471  0.67213151     0.09000
C1023       C  0.20707462  0.17759995  0.68599804    -0.02500
C1024       C  0.21229488  0.18601489  0.71867609    -0.00700
C1025       C  0.18641738  0.19828969  0.73704087    -0.04400
C1026       C  0.15478035  0.19526572  0.72463573     0.02700
C1027       C  0.17241756  0.18646439  0.63712213     0.09500
C1028       C  0.23277994  0.16363391  0.66655521     0.35400
C1029       C  0.12717083  0.19294090  0.74552467     0.38800
C1030       C  0.18509216  0.21379894  0.62247669    -0.04700
C1031       C  0.17811158  0.21929956  0.59006603     0.02400
C1032       C  0.16173496  0.19557297  0.57227076    -0.04300
C1033       C  0.14139848  0.17507751  0.58902046    -0.00600
C1034       C  0.14978547  0.16722424  0.62039382    -0.03100
C1035       C  0.20599857  0.23484441  0.64086381     0.36100
C1036       C  0.11340168  0.16089815  0.57370090     0.39700
C1037       C  0.19134308  0.24600053  0.57325087     0.38900
C1038       C  0.13451908  0.14044340  0.63570215     0.35800
C1039       C  0.11860169  0.19833579  0.67800691     0.36500
C1040       C  0.24304851  0.18016701  0.73386189     0.39700
N1041       N  0.20121681  0.26700511  0.55873238    -0.38300
N1042       N  0.22276433  0.24978060  0.65755621    -0.39900
N1043       N  0.09035631  0.14957742  0.56275978    -0.37700
N1044       N  0.12205395  0.11946853  0.64824571    -0.40000
N1045       N  0.25311377  0.15196176  0.65112270    -0.39800
N1046       N  0.26726164  0.17472592  0.74649020    -0.37500
N1047       N  0.10512602  0.19001396  0.76205476    -0.38500
N1048       N  0.09402622  0.20302064  0.66570265    -0.40200
C1049       C  0.23359591  0.65281862  0.03786925     0.80600
N1050       N  0.21822248  0.62956640  0.01877509    -0.77700
C1051       C  0.18474065  0.63110065  0.01590457     0.83000
N1052       N  0.16843669  0.65496247  0.03127025    -0.77700
C1053       C  0.18304128  0.67725946  0.04966708     0.83100
N1054       N  0.21538179  0.67563168  0.05309232    -0.79400
C1055       C  0.04432222  0.52274867  0.34378003     0.80600
N1056       N  0.07306950  0.52323322  0.32881685    -0.77700
C1057       C  0.07694950  0.51315252  0.29786921     0.83000
N1058       N  0.05138932  0.50330443  0.28069771    -0.77700
C1059       C  0.52149334  0.50219013  0.29517893     0.83100
N1060       N  0.01784394  0.51125692  0.32631925    -0.79400
C1061       C  0.44742336  0.83684083  0.13433332     0.80600
N1062       N  0.42420754  0.81750263  0.11952520    -0.77700
C1063       C  0.42596082  0.78417288  0.12233862     0.83000
N1064       N  0.44902153  0.77164343  0.14195091    -0.77700
C1065       C  0.47013961  0.79084073  0.15779634     0.83100
N1066       N  0.47000916  0.82233283  0.15230469    -0.79400
C1067       C  0.15376498  0.74078656  0.29432127     0.80600
N1068       N  0.14912893  0.71641469  0.31506614    -0.77700
C1069       C  0.17076740  0.69137529  0.31596435     0.83000
N1070       N  0.19330851  0.68845541  0.29277905    -0.77700
C1071       C  0.19446326  0.70940606  0.26934394     0.83100
N1072       N  0.17883260  0.73771896  0.27372802    -0.79400
O1073       O  0.25986240  0.81820165  0.38943716    -0.78100
C1074       C  0.29095243  0.86141142  0.29494416     0.82900
O1075       O  0.16918157  0.87074115  0.37183373    -0.79200
O1076       O  0.17597396  0.84880316  0.26794046    -0.80700
O1077       O  0.25661040  0.75633300  0.29173492    -0.80500
O1078       O  0.26370922  0.76588452  0.38116435    -0.79100
Zn1079     Zn  0.24584272  0.84255574  0.35120892     1.55700
O1080       O  0.23085817  0.78622806  0.25528045    -0.80500
Cd1081     Cd  0.23455177  0.76990134  0.33728278     1.59700
Cd1082     Cd  0.17185660  0.82526983  0.34448586     1.59600
O1083       O  0.19723127  0.74172046  0.35492320    -0.80500
O1084       O  0.21754655  0.81584415  0.32793834    -1.91000
Cd1085     Cd  0.22316930  0.82934098  0.28170105     1.59900
O1086       O  0.16255268  0.78121212  0.37009981    -0.80500
O1087       O  0.26921298  0.85590741  0.27324133    -0.79100
C1088       C  0.19210094  0.89116980  0.37346585     0.83400
C1089       C  0.26635972  0.79041124  0.40015949     0.83000
O1090       O  0.28432715  0.85538708  0.32420074    -0.78100
C1091       C  0.25197481  0.76500244  0.26236770     0.83900
O1092       O  0.22079712  0.88248207  0.36579162    -0.78200
C1093       C  0.17276006  0.75156902  0.37118126     0.84000
C1094       C  0.14618803  0.84769164  0.27740764     0.84300
O1095       O  0.13934225  0.83633237  0.30501093    -0.80600
C1096       C  0.01874668  0.50766437  0.10235379     0.80600
N1097       N  0.98673425  0.01589368  0.09174698    -0.77700
C1098       C  0.97933376  0.01936325  0.06048380     0.83000
N1099       N  0.00347151  0.02416370  0.03948584    -0.77700
C1100       C  0.03635829  0.51972635  0.04912434     0.83100
N1101       N  0.04333103  0.50853575  0.07972714    -0.79400
C1102       C  0.13234329  0.67929345  0.40925283     0.80600
N1103       N  0.11528106  0.69662600  0.43127809    -0.77700
C1104       C  0.11888766  0.72865365  0.43624956     0.83000
N1105       N  0.13873864  0.74450054  0.41698493    -0.77700
C1106       C  0.15541581  0.72921949  0.39319543     0.83100
N1107       N  0.15316764  0.69583471  0.38969258    -0.79400
C1108       C  0.32354101  0.87825953  0.29080740     0.80600
N1109       N  0.33365431  0.89218962  0.31875086    -0.77700
C1110       C  0.36127309  0.90865208  0.32166466     0.83000
N1111       N  0.38082616  0.91019562  0.29635711    -0.77700
C1112       C  0.37306164  0.89671829  0.26749548     0.83100
N1113       N  0.34345841  0.88076526  0.26387020    -0.79400
C1114       C  0.35986471  0.80967645  0.49657636     0.80600
N1115       N  0.38526314  0.79007901  0.48785407    -0.77700
C1116       C  0.40717807  0.78065517  0.51038943     0.83000
N1117       N  0.40060811  0.78773844  0.03796466    -0.77700
C1118       C  0.37905308  0.81156901  0.04471284     0.83100
N1119       N  0.35595257  0.81713544  0.52802350    -0.79400
O1120       O  0.02871496  0.61019674  0.44986681    -0.78100
C1121       C  0.12456703  0.64333899  0.40865793     0.82900
O1122       O  0.04731165  0.51776125  0.40224710    -0.79200
O1123       O  0.15444738  0.53054588  0.41773146    -0.80700
O1124       O  0.13252199  0.61021915  0.00580760    -0.80500
O1125       O  0.04302578  0.61496977  0.00123549    -0.79100
Zn1126     Zn  0.06760388  0.59495446  0.42296435     1.55700
O1127       O  0.17249147  0.58884229  0.97626928    -0.80500
Cd1128     Cd  0.08785630  0.58665469  0.99615019     1.59700
Cd1129     Cd  0.07821139  0.52328807  0.44508688     1.59600
O1130       O  0.08004799  0.54956554  0.02840106    -0.80500
O1131       O  0.09407434  0.56950731  0.45015542    -1.91000
Cd1132     Cd  0.14064604  0.57695157  0.43597330     1.59900
O1133       O  0.05428062  0.01577149  0.99292738    -0.80500
O1134       O  0.14618476  0.62099855  0.40876939    -0.79100
C1135       C  0.04556510  0.53661017  0.37820131     0.83400
C1136       C  0.02259082  0.61884833  0.97838941     0.83000
O1137       O  0.09516367  0.63600338  0.41416973    -0.78100
C1138       C  0.16276251  0.60803292  0.99856864     0.83900
O1139       O  0.05366430  0.56630511  0.38218983    -0.78200
C1140       C  0.06051582  0.52654641  0.02301819     0.84000
C1141       C  0.14568126  0.00044481  0.41889669     0.84300
O1142       O  0.11895223  0.99225814  0.43153920    -0.80600
C1143       C  0.99157604  0.63874825  0.98049351     0.80600
N1144       N  0.96781127  0.64167546  0.00393386    -0.77700
C1145       C  0.93905968  0.65830111  0.99694734     0.83000
N1146       N  0.43668714  0.67498175  0.46981353    -0.77700
C1147       C  0.96060307  0.67333409  0.44785601     0.83100
N1148       N  0.98741639  0.65670605  0.45470752    -0.79400
C1149       C  0.30097311  0.74740889  0.18687266     0.80600
N1150       N  0.32838812  0.76178987  0.19753096    -0.77700
C1151       C  0.33122805  0.77488215  0.22781846     0.83000
N1152       N  0.30618484  0.77304296  0.24794821    -0.77700
C1153       C  0.27825641  0.75924413  0.23874574     0.83100
N1154       N  0.27510212  0.74645091  0.20773704    -0.79400
C1155       C  0.18727738  0.92696370  0.37828772     0.80600
N1156       N  0.16578072  0.94358146  0.39854353    -0.77700
C1157       C  0.16759707  0.97701623  0.40098047     0.83000
N1158       N  0.18973695  0.99199375  0.38329913    -0.77700
C1159       C  0.20892822  0.97612370  0.36246312     0.83100
N1160       N  0.20781648  0.94394513  0.36031886    -0.79400
C1161       C  0.42507757  0.60791003  0.22558743     0.80600
N1162       N  0.39798436  0.59025800  0.22776730    -0.77700
C1163       C  0.39782579  0.56300601  0.24489943     0.83000
N1164       N  0.42480624  0.55353405  0.26036062    -0.77700
C1165       C  0.45210231  0.57063036  0.25885056     0.83100
N1166       N  0.45191806  0.59737711  0.24087493    -0.79400
O1167       O  0.30286579  0.70262735  0.14742749    -0.78100
C1168       C  0.26895335  0.65467687  0.04686861     0.82900
O1169       O  0.38924739  0.63834202  0.12079125    -0.79200
O1170       O  0.38206273  0.66750852  0.01003705    -0.80700
O1171       O  0.31053660  0.76207585  0.04201176    -0.80500
O1172       O  0.30868930  0.75211857  0.12984032    -0.79100
Zn1173     Zn  0.31408058  0.67397886  0.10534528     1.55700
O1174       O  0.31954712  0.72696030  0.50326486    -0.80500
Cd1175     Cd  0.33314136  0.74381053  0.08495644     1.59700
Cd1176     Cd  0.38930664  0.68317409  0.09186676     1.59600
O1177       O  0.37528422  0.76974001  0.09634064    -0.80500
O1178       O  0.34368555  0.69596972  0.07736285    -1.91000
Cd1179     Cd  0.33529842  0.68385541  0.02967197     1.59900
O1180       O  0.40751633  0.72935580  0.11141171    -0.80500
O1181       O  0.29158844  0.65494330  0.02574379    -0.79100
C1182       C  0.36420352  0.62150189  0.12719231     0.83400
C1183       C  0.30212801  0.73319891  0.15272190     0.83000
O1184       O  0.27485335  0.66237559  0.07650356    -0.78100
C1185       C  0.30890648  0.75485950  0.51247944     0.83900
O1186       O  0.33617563  0.63292050  0.12067742    -0.78200
C1187       C  0.40159557  0.75989077  0.10906314     0.84000
C1188       C  0.41138972  0.66459984  0.02069645     0.84300
O1189       O  0.41788316  0.66979935  0.05057661    -0.80600
C1190       C  0.36361181  0.58893790  0.14399719     0.80600
N1191       N  0.38858594  0.56691926  0.14904268    -0.77700
C1192       C  0.38192662  0.53711084  0.16239499     0.83000
N1193       N  0.35086699  0.53057493  0.17057042    -0.77700
C1194       C  0.32687980  0.55271683  0.16690752     0.83100
N1195       N  0.33363997  0.58081231  0.15333132    -0.79400
C1196       C  0.07289311  0.87494061  0.22544243     0.80600
N1197       N  0.09136132  0.87111318  0.25351809    -0.77700
C1198       C  0.12051579  0.85373728  0.25165624     0.83000
N1199       N  0.12933367  0.84090564  0.22300349    -0.77700
C1200       C  0.11190781  0.84418748  0.19611339     0.83100
N1201       N  0.08411176  0.86133988  0.19750559    -0.79400
C1202       C  0.27248013  0.79064368  0.43613051     0.80600
N1203       N  0.26267466  0.81875513  0.44919190    -0.77700
C1204       C  0.26839198  0.82835049  0.47929333     0.83000
N1205       N  0.28295134  0.80738552  0.49957842    -0.77700
C1206       C  0.29242934  0.77711785  0.48846726     0.83100
N1207       N  0.28765537  0.76883666  0.45593854    -0.79400
C1208       C  0.13127207  0.98321892  0.04075033     0.80600
N1209       N  0.12214699  0.95353277  0.04895909    -0.77700
C1210       C  0.11406211  0.94656883  0.07911882     0.83000
N1211       N  0.11582318  0.47465368  0.10153785    -0.77700
C1212       C  0.12457190  0.50492869  0.09371292     0.83100
N1213       N  0.13152570  0.00691148  0.06386500    -0.79400
O1214       O  0.47618068  0.88486024  0.14581945    -0.78100
C1215       C  0.01740647  0.48860621  0.13283730     0.82900
O1216       O  0.51898946  0.89720968  0.24225310    -0.79200
O1217       O  0.49439275  0.50295471  0.24453406    -0.80700
O1218       O  0.40012130  0.48078809  0.16457690    -0.80500
O1219       O  0.42282587  0.89005691  0.14648255    -0.79100
Zn1220     Zn  0.49901929  0.92493501  0.16598299     1.55700
O1221       O  0.43373496  0.51893310  0.18350838    -0.80500
Cd1222     Cd  0.42035310  0.93313636  0.17775736     1.59700
Cd1223     Cd  0.47372417  0.92596639  0.23981775     1.59600
O1224       O  0.39058097  0.91394524  0.21477625    -0.80500
O1225       O  0.46631551  0.94440887  0.19484956    -1.91000
Cd1226     Cd  0.47583217  0.49180305  0.19710191     1.59900
O1227       O  0.42785377  0.90532573  0.25284568    -0.80500
O1228       O  0.50896744  0.50439747  0.16002007    -0.79100
C1229       C  0.54175993  0.89456823  0.22125288     0.83400
C1230       C  0.44815221  0.87308897  0.14002493     0.83000
O1231       O  0.51448437  0.95854485  0.13127651    -0.78100
C1232       C  0.40715306  0.51099697  0.16961264     0.83900
O1233       O  0.53724196  0.90608087  0.19313266    -0.78200
C1234       C  0.39833121  0.90372808  0.24256010     0.84000
C1235       C  0.49690670  0.48901277  0.27182165     0.84300
O1236       O  0.48653196  0.46045119  0.27540389    -0.80600
C1237       C  0.22527938  0.90180096  0.51554898    -0.05100
C1238       C  0.22490535  0.92185196  0.48893153     0.09000
C1239       C  0.24526679  0.91478586  0.46312218    -0.02500
C1240       C  0.26295210  0.88577477  0.46194967    -0.00700
C1241       C  0.25943544  0.86276662  0.48664337    -0.04400
C1242       C  0.24159357  0.87188388  0.51416505     0.02700
C1243       C  0.19947109  0.94737910  0.48690269     0.09500
C1244       C  0.24715305  0.93694595  0.43722608     0.35400
C1245       C  0.23725847  0.84958000  0.53949297     0.38800
C1246       C  0.21073326  0.97719876  0.00920435    -0.04700
C1247       C  0.18365899  0.99684386  0.01636530     0.02400
C1248       C  0.15240118  0.98409499  0.01196861    -0.04300
C1249       C  0.14884722  0.95783692  0.98984974    -0.00600
C1250       C  0.16791725  0.93832546  0.47823295    -0.03100
C1251       C  0.24282831  0.98718019  0.01868093     0.36100
C1252       C  0.11680763  0.94719678  0.98062981     0.39700
C1253       C  0.18826769  0.02820397  0.03149070     0.38900
C1254       C  0.16234624  0.90757561  0.46191340     0.35800
C1255       C  0.22439290  0.91334726  0.05296008     0.36500
C1256       C  0.28220516  0.87901418  0.43347155     0.39700
N1257       N  0.19314681  0.05314906  0.04339147    -0.38300
N1258       N  0.26848929  0.99480082  0.02646359    -0.39900
N1259       N  0.09132637  0.93864558  0.97326741    -0.37700
N1260       N  0.15791256  0.88307583  0.44890555    -0.40000
N1261       N  0.24947956  0.95466729  0.41657741    -0.39800
N1262       N  0.29634491  0.87438306  0.40986195    -0.37500
N1263       N  0.23342615  0.83164684  0.55971556    -0.38500
N1264       N  0.21582879  0.92406810  0.07737138    -0.40200
C1265       C  0.11609618  0.80531381  0.11256414    -0.05100
C1266       C  0.14710460  0.81540164  0.10467602     0.09000
C1267       C  0.16829429  0.81115601  0.13048327    -0.02500
C1268       C  0.15780229  0.82308466  0.16089065    -0.00700
C1269       C  0.12408129  0.82942740  0.16554561    -0.04400
C1270       C  0.10262548  0.81873875  0.14081738     0.02700
C1271       C  0.14601511  0.84896510  0.09096251     0.09500
C1272       C  0.20186966  0.80413671  0.12427693     0.35400
C1273       C  0.06802528  0.81996765  0.14421282     0.38800
C1274       C  0.16169077  0.87540457  0.10664327    -0.04700
C1275       C  0.14726235  0.90610259  0.10737075     0.02400
C1276       C  0.12039826  0.91269690  0.08758113    -0.04300
C1277       C  0.10822399  0.88759066  0.06748188    -0.00600
C1278       C  0.12149950  0.85629073  0.06849646    -0.03100
C1279       C  0.19426267  0.87287316  0.11928263     0.36100
C1280       C  0.08177659  0.89355958  0.04563617     0.39700
C1281       C  0.16364520  0.43690918  0.12790866     0.38900
C1282       C  0.11013803  0.83150480  0.04606877     0.35800
C1283       C  0.10186390  0.77793476  0.09600265     0.36500
C1284       C  0.18201971  0.83265017  0.18439433     0.39700
N1285       N  0.17693349  0.45587038  0.14372903    -0.38300
N1286       N  0.22038178  0.87259089  0.12917351    -0.39900
N1287       N  0.06065001  0.89692201  0.02783588    -0.37700
N1288       N  0.10103924  0.81195759  0.02799737    -0.40000
N1289       N  0.22910029  0.79957801  0.12014055    -0.39800
N1290       N  0.20181521  0.84032169  0.20260513    -0.37500
N1291       N  0.04032733  0.82118110  0.14660725    -0.38500
N1292       N  0.09087828  0.75551849  0.08321388    -0.40200
C1293       C  0.17945335  0.56517734  0.12785961    -0.05100
C1294       C  0.18925885  0.54796828  0.15493641     0.09000
C1295       C  0.16715234  0.52719156  0.16916101    -0.02500
C1296       C  0.13930137  0.51770829  0.15183438    -0.00700
C1297       C  0.13502363  0.52810125  0.11996832    -0.04400
C1298       C  0.15123938  0.55605308  0.11137072     0.02700
C1299       C  0.22432197  0.54571418  0.16285395     0.09500
C1300       C  0.17462939  0.51318721  0.19978992     0.35400
C1301       C  0.13869430  0.57493136  0.08560197     0.38800
C1302       C  0.23834422  0.56546062  0.18689925    -0.04700
C1303       C  0.27220133  0.56560832  0.19084714     0.02400
C1304       C  0.29218561  0.54519896  0.17140129    -0.04300
C1305       C  0.27753470  0.52325999  0.14964008    -0.00600
C1306       C  0.24404564  0.52454045  0.14428077    -0.03100
C1307       C  0.21807735  0.58679243  0.20638898     0.36100
C1308       C  0.29706237  0.50024577  0.13155751     0.39700
C1309       C  0.28601438  0.58675960  0.21515851     0.38900
C1310       C  0.23024192  0.50625955  0.11750743     0.35800
C1311       C  0.19990704  0.58971226  0.11510323     0.36500
C1312       C  0.11713227  0.49510734  0.16539617     0.39700
N1313       N  0.29540769  0.60402391  0.23524073    -0.38300
N1314       N  0.20207449  0.60391084  0.22198320    -0.39900
N1315       N  0.31247871  0.48131341  0.11759445    -0.37700
N1316       N  0.21921259  0.49252308  0.09562706    -0.40000
N1317       N  0.18031127  0.50191125  0.22427927    -0.39800
N1318       N  0.09953491  0.47671328  0.17580441    -0.37500
N1319       N  0.12520013  0.08652509  0.06552490    -0.38500
N1320       N  0.21617822  0.60910795  0.10447142    -0.40200
C1321       C  0.33079844  0.00632850  0.27241306    -0.05100
C1322       C  0.31098427  0.02899979  0.28903737     0.09000
C1323       C  0.32197205  0.56339404  0.29393880    -0.02500
C1324       C  0.34811911  0.57414289  0.27625178    -0.00700
C1325       C  0.36734737  0.55202136  0.25815608    -0.04400
C1326       C  0.35837793  0.01647212  0.25645736     0.02700
C1327       C  0.28287284  0.01807096  0.30752691     0.09500
C1328       C  0.30435779  0.58609838  0.31458149     0.35400
C1329       C  0.38152086  0.99327541  0.24374246     0.38800
C1330       C  0.28240579  0.02234499  0.34131968    -0.04700
C1331       C  0.25534573  0.01306708  0.35858204     0.02400
C1332       C  0.23198792  0.99360017  0.34312647    -0.04300
C1333       C  0.23290443  0.98832008  0.30948469    -0.00600
C1334       C  0.25708319  0.00255902  0.29148330    -0.03100
C1335       C  0.31076321  0.03359831  0.35866414     0.36100
C1336       C  0.20982200  0.96733569  0.29342790     0.39700
C1337       C  0.25274119  0.02207890  0.39243324     0.38900
C1338       C  0.25631908  0.99982251  0.25661875     0.35800
C1339       C  0.32288929  0.97261189  0.27213235     0.36500
C1340       C  0.35653169  0.60776015  0.27954403     0.39700
N1341       N  0.25058704  0.02974801  0.41930603    -0.38300
N1342       N  0.33345270  0.04214853  0.37254978    -0.39900
N1343       N  0.19198213  0.95008549  0.28054237    -0.37700
N1344       N  0.25608751  0.99711363  0.22887342    -0.40000
N1345       N  0.29129136  0.60430145  0.33169456    -0.39800
N1346       N  0.36222260  0.63471235  0.28335788    -0.37500
N1347       N  0.40165597  0.97608411  0.23443992    -0.38500
N1348       N  0.31486079  0.94611854  0.27136554    -0.40200
C1349       C  0.39628449  0.75611107  0.27809459    -0.05100
C1350       C  0.41074551  0.74095975  0.25107618     0.09000
C1351       C  0.40882014  0.75610974  0.22105244    -0.02500
C1352       C  0.38818327  0.78280915  0.21822133    -0.00700
C1353       C  0.36324066  0.78539113  0.24050206    -0.04400
C1354       C  0.37125869  0.77854027  0.27266741     0.02700
C1355       C  0.41494509  0.70544331  0.24985668     0.09500
C1356       C  0.41845596  0.73766533  0.19271289     0.35400
C1357       C  0.35122766  0.79025855  0.29891015     0.38800
C1358       C  0.38777249  0.68759081  0.24071209    -0.04700
C1359       C  0.39134422  0.65821382  0.22376791     0.02400
C1360       C  0.42201321  0.64338296  0.22111125    -0.04300
C1361       C  0.44924929  0.66256634  0.22776245    -0.00600
C1362       C  0.44562832  0.69248457  0.24407878    -0.03100
C1363       C  0.35592989  0.69897159  0.24991862     0.36100
C1364       C  0.48002411  0.65257064  0.21462896     0.39700
C1365       C  0.36327873  0.64480374  0.20812560     0.38900
C1366       C  0.47252731  0.70981440  0.25713750     0.35800
C1367       C  0.40354347  0.74504942  0.30999172     0.36500
C1368       C  0.38442996  0.80041931  0.18912233     0.39700
N1369       N  0.33967730  0.63652350  0.19586629    -0.38300
N1370       N  0.33065468  0.70703599  0.25861250    -0.39900
N1371       N  0.50363634  0.64396540  0.20237346    -0.37700
N1372       N  0.49224105  0.72474655  0.26996598    -0.40000
N1373       N  0.42534257  0.71931846  0.17246203    -0.39800
N1374       N  0.37853532  0.81601608  0.16728889    -0.37500
N1375       N  0.33532101  0.79930446  0.32013237    -0.38500
N1376       N  0.40967513  0.73648301  0.33554883    -0.40200
C1377       C  0.46134999  0.58511884  0.34245431    -0.05100
C1378       C  0.47359681  0.61619923  0.33726358     0.09000
C1379       C  0.49352345  0.62025750  0.30997821    -0.02500
C1380       C  0.49737092  0.59476885  0.28744315    -0.00700
C1381       C  0.47446064  0.57034237  0.28690165    -0.04400
C1382       C  0.46140516  0.56207799  0.31690523     0.02700
C1383       C  0.46745116  0.64339209  0.36114030     0.09500
C1384       C  0.50941764  0.65029111  0.30417951     0.35400
C1385       C  0.44591276  0.53132456  0.32055449     0.38800
C1386       C  0.49362969  0.65953225  0.37559887    -0.04700
C1387       C  0.98718102  0.68353980  0.39737478     0.02400
C1388       C  0.45852620  0.68486180  0.41474184    -0.04300
C1389       C  0.43140047  0.67396374  0.39756300    -0.00600
C1390       C  0.43576718  0.65274389  0.37069805    -0.03100
C1391       C  0.02543109  0.64564598  0.37162427     0.36100
C1392       C  0.39949369  0.68217852  0.40933745     0.39700
C1393       C  0.01421066  0.70101050  0.41104503     0.38900
C1394       C  0.40789203  0.63777507  0.35609597     0.35800
C1395       C  0.44839399  0.57707002  0.37351246     0.36500
C1396       C  0.52004615  0.59667690  0.26125093     0.39700
N1397       N  0.03652562  0.71390630  0.42169055    -0.38300
N1398       N  0.05068596  0.63427330  0.36832129    -0.39900
N1399       N  0.37190185  0.66770918  0.91550923    -0.37700
N1400       N  0.38516376  0.62518821  0.34605011    -0.40000
N1401       N  0.52331753  0.67368633  0.29983142    -0.39800
N1402       N  0.53882322  0.59845403  0.24095955    -0.37500
N1403       N  0.43370652  0.50670512  0.32360058    -0.38500
N1404       N  0.43810817  0.57060301  0.39825966    -0.40200
C1405       C  0.35298498  0.89421598  0.46925727    -0.05100
C1406       C  0.36564611  0.88989031  0.43803437     0.09000
C1407       C  0.36540452  0.85830026  0.42352954    -0.02500
C1408       C  0.35655899  0.83166224  0.44148855    -0.00700
C1409       C  0.34971879  0.83560920  0.47424341    -0.04400
C1410       C  0.34336731  0.86744070  0.48658333     0.02700
C1411       C  0.37486205  0.91825756  0.41870187     0.09500
C1412       C  0.37352590  0.85243149  0.38999056     0.35400
C1413       C  0.32716992  0.87340084  0.51712012     0.38800
C1414       C  0.40322780  0.91558195  0.40015779    -0.04700
C1415       C  0.40085960  0.91909190  0.36656591     0.02400
C1416       C  0.36985747  0.92359836  0.35299632    -0.04300
C1417       C  0.34495651  0.93595289  0.37279597    -0.00600
C1418       C  0.34933295  0.93649886  0.40599596    -0.03100
C1419       C  0.43214683  0.90201801  0.41415498     0.36100
C1420       C  0.31352043  0.94333805  0.35966954     0.39700
C1421       C  0.42873725  0.91289315  0.34638148     0.38900
C1422       C  0.32817506  0.95588355  0.42624781     0.35800
C1423       C  0.35113376  0.92589423  0.48467265     0.36500
C1424       C  0.35275543  0.80025993  0.42602819     0.39700
N1425       N  0.45109692  0.90813385  0.33037650    -0.38300
N1426       N  0.45523300  0.89073990  0.42498031    -0.39900
N1427       N  0.28817561  0.94715909  0.34879998    -0.37700
N1428       N  0.31207433  0.97287441  0.44191395    -0.40000
N1429       N  0.38015913  0.84656089  0.36348193    -0.39800
N1430       N  0.34891596  0.77544390  0.41340840    -0.37500
N1431       N  0.31416416  0.87875070  0.54127517    -0.36500
N1432       N  0.34976122  0.95084545  0.49763869    -0.40200
C1433       C  0.05922874  0.79056808  0.46927467    -0.05100
C1434       C  0.03960262  0.76953745  0.48610355     0.09000
C1435       C  0.05197156  0.73926432  0.49511564    -0.02500
C1436       C  0.08162819  0.72844634  0.48308408    -0.00700
C1437       C  0.09748007  0.74624128  0.45954686    -0.04400
C1438       C  0.08796472  0.77880725  0.45516624     0.02700
C1439       C  0.00464197  0.77621057  0.49002456     0.09500
C1440       C  0.03303262  0.71743114  0.51387440     0.35400
C1441       C  0.10584296  0.79981544  0.43469445     0.38800
C1442       C  0.98389232  0.77359410  0.46296929    -0.04700
C1443       C  0.45170682  0.77044865  0.46943798     0.02400
C1444       C  0.43934430  0.76714157  0.50084425    -0.04300
C1445       C  0.96053253  0.76351581  0.52412825    -0.00600
C1446       C  0.99159615  0.77491344  0.52082146    -0.03100
C1447       C  0.49771251  0.77775220  0.43276538     0.36100
C1448       C  0.95510308  0.74179574  0.54969353     0.39700
C1449       C  0.43122808  0.76746506  0.44136176     0.38900
C1450       C  0.01083263  0.78181879  0.54931329     0.35800
C1451       C  0.04864811  0.82350098  0.46473461     0.36500
C1452       C  0.09359557  0.69708144  0.49201861     0.39700
N1453       N  0.41675011  0.76443691  0.41773735    -0.38300
N1454       N  0.50750742  0.78074592  0.40700734    -0.39900
N1455       N  0.95861801  0.72658428  0.07496916    -0.37700
N1456       N  0.02507740  0.78774556  0.57259863    -0.40000
N1457       N  0.01845322  0.69969743  0.52888552    -0.39800
N1458       N  0.10280981  0.67153280  0.49759277    -0.37500
N1459       N  0.11972630  0.81692437  0.41836056    -0.38500
N1460       N  0.04025142  0.84977630  0.46111151    -0.40200
C1461       C  0.95438689  0.93952675  0.06564881    -0.05100
C1462       C  0.92043636  0.94096744  0.06755101     0.09000
C1463       C  0.40510236  0.97006656  0.06309185    -0.02500
C1464       C  0.92308043  0.99862101  0.05799875    -0.00700
C1465       C  0.95599663  0.99492040  0.05058183    -0.04400
C1466       C  0.96961933  0.96381583  0.04961286     0.02700
C1467       C  0.40506918  0.90900623  0.06162270     0.09500
C1468       C  0.37039883  0.97173863  0.06143185     0.35400
C1469       C  0.99921493  0.95689125  0.03224037     0.38800
C1470       C  0.38451496  0.89463735  0.08386476    -0.04700
C1471       C  0.37700706  0.86161140  0.07992110     0.02400
C1472       C  0.39282983  0.84248482  0.05601005    -0.04300
C1473       C  0.41406684  0.85761338  0.03451836    -0.00600
C1474       C  0.41625527  0.89086942  0.03483346    -0.03100
C1475       C  0.37020239  0.91376010  0.10974548     0.36100
C1476       C  0.42534978  0.85151485  0.50640358     0.39700
C1477       C  0.35167904  0.84784356  0.09887703     0.38900
C1478       C  0.93048248  0.90815890  0.00742539     0.35800
C1479       C  0.97250036  0.91039461  0.07260414     0.36500
C1480       C  0.40858635  0.02946673  0.05743244     0.39700
N1481       N  0.33100586  0.83703469  0.11351213    -0.38300
N1482       N  0.35869246  0.92861873  0.13071779    -0.39900
N1483       N  0.44014838  0.84146333  0.48481536    -0.37700
N1484       N  0.94294760  0.92092874  0.98657928    -0.40000
N1485       N  0.34269488  0.97301230  0.05874255    -0.39800
N1486       N  0.39907199  0.55292256  0.06816732    -0.37500
N1487       N  0.02221049  0.95173188  0.01731744    -0.38500
N1488       N  0.98759453  0.88738710  0.07715387    -0.40200
C1489       C  0.06663460  0.76826271  0.28658525    -0.05100
C1490       C  0.06461871  0.76920166  0.25277265     0.09000
C1491       C  0.09310232  0.76906903  0.23463112    -0.02500
C1492       C  0.12316436  0.76779271  0.24976129    -0.00700
C1493       C  0.12534049  0.76039425  0.28304533    -0.04400
C1494       C  0.09679722  0.76329872  0.30163717     0.02700
C1495       C  0.03325750  0.77014339  0.23508386     0.09500
C1496       C  0.09171321  0.76533797  0.19990808     0.35400
C1497       C  0.09746672  0.76052243  0.33612791     0.38800
C1498       C  0.01386594  0.79795606  0.23623780    -0.04700
C1499       C  0.49045116  0.80167345  0.21359802     0.02400
C1500       C  0.48825389  0.78007945  0.18655762    -0.04300
C1501       C  0.50460705  0.75032316  0.18745498    -0.00600
C1502       C  0.52645682  0.74469505  0.21271982    -0.03100
C1503       C  0.01886757  0.82276905  0.26090378     0.36100
C1504       C  0.49985989  0.72583017  0.16244152     0.39700
C1505       C  0.46732427  0.82762984  0.21817713     0.38900
C1506       C  0.04035406  0.71368200  0.21670880     0.35800
C1507       C  0.03766348  0.77018215  0.30601463     0.36500
C1508       C  0.15123450  0.76992107  0.22917931     0.39700
N1509       N  0.44838666  0.84809890  0.22150736    -0.38300
N1510       N  0.02258791  0.84211407  0.28103599    -0.39900
N1511       N  0.49596238  0.70604562  0.14280917    -0.37700
N1512       N  0.05152068  0.68864029  0.22147655    -0.40000
N1513       N  0.09070101  0.75984130  0.17254779    -0.39800
N1514       N  0.17345663  0.76993738  0.21254593    -0.37500
N1515       N  0.09540514  0.75860080  0.36370819    -0.38500
N1516       N  0.51482518  0.76964741  0.32155262    -0.40200
C1517       C  0.12801785  0.61792068  0.31561267    -0.05100
C1518       C  0.15499718  0.59989310  0.30437778     0.09000
C1519       C  0.18617919  0.61021035  0.31265178    -0.02500
C1520       C  0.18969467  0.63862269  0.33118365    -0.00700
C1521       C  0.16381429  0.66091544  0.33151257    -0.04400
C1522       C  0.13235066  0.64914535  0.32825735     0.02700
C1523       C  0.14985174  0.56762210  0.28937895     0.09500
C1524       C  0.21405344  0.59273338  0.30040024     0.35400
C1525       C  0.10486826  0.67012805  0.33433135     0.38800
C1526       C  0.13127301  0.56464916  0.26093027    -0.04700
C1527       C  0.11038502  0.53842768  0.25738019     0.02400
C1528       C  0.10853293  0.51684771  0.28264988    -0.04300
C1529       C  0.13488163  0.51381615  0.30344305    -0.00600
C1530       C  0.15424104  0.54079489  0.30896114    -0.03100
C1531       C  0.12911357  0.59100702  0.23899341     0.36100
C1532       C  0.13562100  0.48640743  0.32396015     0.39700
C1533       C  0.58531942  0.53790535  0.23248014     0.38900
C1534       C  0.17266826  0.54469495  0.33834284     0.35800
C1535       C  0.09605881  0.60455277  0.31368053     0.36500
C1536       C  0.22117733  0.64896318  0.34227743     0.39700
N1537       N  0.56586251  0.53715005  0.21249745    -0.38300
N1538       N  0.12693808  0.61202417  0.22145992    -0.39900
N1539       N  0.13401837  0.46342077  0.33879640    -0.37700
N1540       N  0.18736964  0.55157294  0.36112555    -0.40000
N1541       N  0.23577084  0.57859955  0.28962448    -0.39800
N1542       N  0.24605201  0.65787766  0.35115231    -0.37500
N1543       N  0.08321605  0.68736766  0.33884977    -0.38500
N1544       N  0.07075029  0.59337417  0.31244768    -0.40200
C1545       C  0.15120787  0.68547756  0.19372820    -0.05100
C1546       C  0.17726908  0.67913791  0.17305914     0.09000
C1547       C  0.20843131  0.67401832  0.18591665    -0.02500
C1548       C  0.21449234  0.68227258  0.21840121    -0.00700
C1549       C  0.18905988  0.69400581  0.23755415    -0.04400
C1550       C  0.15697397  0.68996168  0.22639920     0.02700
C1551       C  0.17258999  0.68440874  0.13839847     0.09500
C1552       C  0.23424975  0.66225666  0.16535310     0.35400
C1553       C  0.12972249  0.68895035  0.24793709     0.38800
C1554       C  0.18645745  0.71186661  0.12485080    -0.04700
C1555       C  0.18112936  0.71797753  0.09221368     0.02400
C1556       C  0.16381712  0.69541766  0.07372749    -0.04300
C1557       C  0.14170349  0.67625652  0.08973075    -0.00600
C1558       C  0.14970700  0.66645070  0.12055405    -0.03100
C1559       C  0.20726649  0.73217152  0.14427623     0.36100
C1560       C  0.11281759  0.66473683  0.07390076     0.39700
C1561       C  0.19835690  0.74263410  0.07571232     0.38900
C1562       C  0.13404419  0.63885184  0.13396501     0.35800
C1563       C  0.11878676  0.68927059  0.18110469     0.36500
C1564       C  0.24596567  0.67752236  0.23248485     0.39700
N1565       N  0.21191133  0.76164605  0.06134570    -0.38300
N1566       N  0.22385909  0.74699756  0.16125355    -0.39900
N1567       N  0.08901584  0.65562254  0.06248938    -0.37700
N1568       N  0.12106184  0.61750348  0.14531320    -0.40000
N1569       N  0.25488059  0.65268543  0.14899715    -0.39800
N1570       N  0.27080977  0.67306965  0.24429165    -0.37500
N1571       N  0.10717865  0.68734519  0.26400471    -0.38500
N1572       N  0.09361732  0.69120655  0.16921448    -0.40200
C1573       C  0.23454924  0.65484535  0.53499411     0.80600
N1574       N  0.21885071  0.63113938  0.51665658    -0.77700
C1575       C  0.18533583  0.63290899  0.51367873     0.83000
N1576       N  0.16927412  0.65735801  0.52855965    -0.77700
C1577       C  0.18424488  0.67998364  0.54638954     0.83100
N1578       N  0.21657335  0.67827500  0.54942945    -0.79400
C1579       C  0.04591733  0.52056769  0.84470056     0.80600
N1580       N  0.07472884  0.52092784  0.82987630    -0.77700
C1581       C  0.07859193  0.51165282  0.79870948     0.83000
N1582       N  0.05291473  0.50266379  0.78119317    -0.77700
C1583       C  0.52264959  0.50009252  0.79475050     0.83100
N1584       N  0.01927428  0.51002951  0.82684904    -0.79400
C1585       C  0.45112485  0.83540667  0.63533517     0.80600
N1586       N  0.42849381  0.81597804  0.61978897    -0.77700
C1587       C  0.42979080  0.78274179  0.62325607     0.83000
N1588       N  0.45213236  0.77035052  0.64381050    -0.77700
C1589       C  0.47283151  0.78964471  0.66023974     0.83100
N1590       N  0.47289386  0.82115369  0.65455379    -0.79400
C1591       C  0.15693868  0.73987119  0.79475161     0.80600
N1592       N  0.15262950  0.71556276  0.81553035    -0.77700
C1593       C  0.17377493  0.69019541  0.81573575     0.83000
N1594       N  0.19562776  0.68686354  0.79184098    -0.77700
C1595       C  0.19725000  0.70845386  0.76885527     0.83100
N1596       N  0.18151710  0.73673572  0.77354835    -0.79400
O1597       O  0.26214888  0.81931920  0.88942872    -0.78100
C1598       C  0.29128320  0.86408110  0.79374830     0.82900
O1599       O  0.16919765  0.86999452  0.87261235    -0.79200
O1600       O  0.17733530  0.84913376  0.76826649    -0.80700
O1601       O  0.25844195  0.75774291  0.79086114    -0.80500
O1602       O  0.26586157  0.76696444  0.88077587    -0.79100
Zn1603     Zn  0.24722887  0.84387150  0.85129141     1.55700
O1604       O  0.23118254  0.78706365  0.75510825    -0.80500
Cd1605     Cd  0.23657865  0.77044420  0.83695492     1.59700
Cd1606     Cd  0.17336390  0.82469040  0.84485006     1.59600
O1607       O  0.19999111  0.74126729  0.85511633    -0.80500
O1608       O  0.21925432  0.81644277  0.82814834    -1.91000
Cd1609     Cd  0.22432557  0.83000275  0.78176194     1.59900
O1610       O  0.16531127  0.78045783  0.87082445    -0.80500
O1611       O  0.26976545  0.85695916  0.77230511    -0.79100
C1612       C  0.19180685  0.89072315  0.87485504     0.83400
C1613       C  0.26866832  0.79137524  0.89990508     0.83000
O1614       O  0.28494257  0.85878442  0.82330676    -0.78100
C1615       C  0.25313754  0.76655244  0.76161370     0.83900
O1616       O  0.22063918  0.88252172  0.86701597    -0.78200
C1617       C  0.17570272  0.75085828  0.87182111     0.84000
C1618       C  0.14761605  0.84683107  0.77745975     0.84300
O1619       O  0.14093126  0.83486720  0.80487089    -0.80600
C1620       C  0.02027545  0.50631971  0.60151200     0.80600
N1621       N  0.99011411  0.01635984  0.59327492    -0.77700
C1622       C  0.98193633  0.01903734  0.56217147     0.83000
N1623       N  0.00557642  0.02243661  0.54025113    -0.77700
C1624       C  0.03750985  0.51879634  0.54825525     0.83100
N1625       N  0.04477397  0.50762557  0.57881531    -0.79400
C1626       C  0.13477168  0.67824481  0.90928571     0.80600
N1627       N  0.11691985  0.69559201  0.93057539    -0.77700
C1628       C  0.12027304  0.72762008  0.93563906     0.83000
N1629       N  0.14083163  0.74355863  0.91714276    -0.77700
C1630       C  0.15833792  0.72829970  0.89386630     0.83100
N1631       N  0.15623711  0.69483369  0.89034757    -0.79400
C1632       C  0.32322204  0.88190716  0.78852178     0.80600
N1633       N  0.33291989  0.89772675  0.81562202    -0.77700
C1634       C  0.36032844  0.91468203  0.81762528     0.83000
N1635       N  0.37994917  0.91488411  0.79234881    -0.77700
C1636       C  0.37276622  0.89941729  0.76441466     0.83100
N1637       N  0.34347879  0.88274863  0.76162283    -0.79400
C1638       C  0.36076605  0.80995901  0.99195412     0.80600
N1639       N  0.38429489  0.78780016  0.98426676    -0.77700
C1640       C  0.40287971  0.77448997  0.00781223     0.83000
N1641       N  0.40586535  0.79551699  0.53990754    -0.77700
C1642       C  0.38167787  0.81631508  0.54757216     0.83100
N1643       N  0.35549071  0.81694578  0.02329743    -0.79400
O1644       O  0.03020378  0.60973788  0.94955716    -0.78100
C1645       C  0.12699756  0.64220503  0.90886450     0.82900
O1646       O  0.04940672  0.51591609  0.90324964    -0.79200
O1647       O  0.15613308  0.53011547  0.91966840    -0.80700
O1648       O  0.13300075  0.61084762  0.50545077    -0.80500
O1649       O  0.04340850  0.61567691  0.50111282    -0.79100
Zn1650     Zn  0.06918223  0.59397470  0.92283925     1.55700
O1651       O  0.17213878  0.59074889  0.47394178    -0.80500
Cd1652     Cd  0.08812537  0.58704605  0.49573809     1.59700
Cd1653     Cd  0.07947487  0.52236157  0.94661070     1.59600
O1654       O  0.08075043  0.54928602  0.52749728    -0.80500
O1655       O  0.09490274  0.56874127  0.95092067    -1.91000
Cd1656     Cd  0.14186352  0.57605417  0.93775375     1.59900
O1657       O  0.05640634  0.01397800  0.49312136    -0.80500
O1658       O  0.14866727  0.62006716  0.91085396    -0.79100
C1659       C  0.04723109  0.53460501  0.87907496     0.83400
C1660       C  0.02227972  0.61966089  0.47883688     0.83000
O1661       O  0.09730412  0.63480468  0.91305268    -0.78100
C1662       C  0.16299702  0.60934541  0.49708302     0.83900
O1663       O  0.05505036  0.56441573  0.88276111    -0.78200
C1664       C  0.06123623  0.52623414  0.52201156     0.84000
C1665       C  0.14371234  0.00068746  0.91923354     0.84300
O1666       O  0.11682976  0.99292404  0.93187078    -0.80600
C1667       C  0.99213323  0.64067584  0.48169809     0.80600
N1668       N  0.96795298  0.64221908  0.50473502    -0.77700
C1669       C  0.93961342  0.65963008  0.49835246     0.83000
N1670       N  0.43460328  0.67010754  0.96667392    -0.77700
C1671       C  0.95927019  0.66869564  0.94505124     0.83100
N1672       N  0.98613401  0.65271284  0.95260276    -0.79400
C1673       C  0.30320906  0.75075536  0.68631039     0.80600
N1674       N  0.33023075  0.76583561  0.69733662    -0.77700
C1675       C  0.33225837  0.77912610  0.72767861     0.83000
N1676       N  0.30682641  0.77703410  0.74720491    -0.77700
C1677       C  0.27946461  0.76240038  0.73776986     0.83100
N1678       N  0.27711825  0.74921565  0.70685091    -0.79400
C1679       C  0.18675222  0.92652163  0.88045112     0.80600
N1680       N  0.16432541  0.94316914  0.89984113    -0.77700
C1681       C  0.16612379  0.97672947  0.90231291     0.83000
N1682       N  0.18905881  0.99158089  0.88558825    -0.77700
C1683       C  0.20918071  0.97566279  0.86572471     0.83100
N1684       N  0.20802484  0.94355296  0.86346469    -0.79400
C1685       C  0.42219165  0.61118050  0.72449717     0.80600
N1686       N  0.39474891  0.59396237  0.72643661    -0.77700
C1687       C  0.39471834  0.56488993  0.74050609     0.83000
N1688       N  0.42234789  0.55321136  0.75317218    -0.77700
C1689       C  0.45001696  0.56982651  0.75177631     0.83100
N1690       N  0.44957323  0.59833945  0.73669176    -0.79400
O1691       O  0.30325656  0.70558739  0.64673303    -0.78100
C1692       C  0.26978943  0.65637899  0.54490273     0.82900
O1693       O  0.38910353  0.63834370  0.62070848    -0.79200
O1694       O  0.38303083  0.66933720  0.51052507    -0.80700
O1695       O  0.31214108  0.76442938  0.54215597    -0.80500
O1696       O  0.31363245  0.75455940  0.62965074    -0.79100
Zn1697     Zn  0.31421914  0.67550403  0.60491073     1.55700
O1698       O  0.31907214  0.72475530  0.00311882    -0.80500
Cd1699     Cd  0.33643840  0.74535757  0.58428086     1.59700
Cd1700     Cd  0.38980277  0.68319305  0.59263727     1.59600
O1701       O  0.38013080  0.76916180  0.59500734    -0.80500
O1702       O  0.34462918  0.69705456  0.57730181    -1.91000
Cd1703     Cd  0.33622998  0.68574564  0.52941966     1.59900
O1704       O  0.40977132  0.72820749  0.61336739    -0.80500
O1705       O  0.29287583  0.65657711  0.52428318    -0.79100
C1706       C  0.36392455  0.62181158  0.62711753     0.83400
C1707       C  0.30499211  0.73614865  0.65222656     0.83000
O1708       O  0.27519562  0.66413483  0.57469469    -0.78100
C1709       C  0.30840810  0.75261651  0.01219446     0.83900
O1710       O  0.33593000  0.63361625  0.62079701    -0.78200
C1711       C  0.40528176  0.75880376  0.60958469     0.84000
C1712       C  0.41196310  0.66525540  0.52178714     0.84300
O1713       O  0.41802414  0.66918457  0.55184692    -0.80600
C1714       C  0.36374225  0.58917184  0.64373510     0.80600
N1715       N  0.38897263  0.56718204  0.64769803    -0.77700
C1716       C  0.38300154  0.53716855  0.66086476     0.83000
N1717       N  0.35220811  0.53035289  0.66981410    -0.77700
C1718       C  0.32795694  0.55240969  0.66717041     0.83100
N1719       N  0.33411157  0.58086357  0.65393847    -0.79400
C1720       C  0.07455504  0.87344370  0.72519161     0.80600
N1721       N  0.09275808  0.86935512  0.75333771    -0.77700
C1722       C  0.12213113  0.85244921  0.75149408     0.83000
N1723       N  0.13158754  0.84040229  0.72266759    -0.77700
C1724       C  0.11450156  0.84397375  0.69556485     0.83100
N1725       N  0.08635664  0.86065730  0.69705891    -0.79400
C1726       C  0.27548760  0.79124430  0.93581850     0.80600
N1727       N  0.26743246  0.81969181  0.94933449    -0.77700
C1728       C  0.27299353  0.82817108  0.97987230     0.83000
N1729       N  0.28561529  0.80587131  0.99972067    -0.77700
C1730       C  0.29351313  0.77554071  0.98814255     0.83100
N1731       N  0.28882660  0.76805964  0.95539159    -0.79400
C1732       C  0.12839940  0.98274543  0.54115148     0.80600
N1733       N  0.11954007  0.95317453  0.54995196    -0.77700
C1734       C  0.11296406  0.94626943  0.58056016     0.83000
N1735       N  0.11650276  0.47389314  0.60470989    -0.77700
C1736       C  0.12482493  0.50438122  0.59718920     0.83100
N1737       N  0.13004930  0.00649604  0.56421565    -0.79400
O1738       O  0.47969982  0.88369453  0.64556562    -0.78100
C1739       C  0.01941669  0.48779477  0.63232453     0.82900
O1740       O  0.51985800  0.89447139  0.74053031    -0.79200
O1741       O  0.49651691  0.50148297  0.74324922    -0.80700
O1742       O  0.40188807  0.48102759  0.66157648    -0.80500
O1743       O  0.42627669  0.88891479  0.64524190    -0.79100
Zn1744     Zn  0.50172874  0.92425069  0.66525033     1.55700
O1745       O  0.43505924  0.51891387  0.68181780    -0.80500
Cd1746     Cd  0.42287396  0.93286392  0.67536499     1.59700
Cd1747     Cd  0.47520543  0.92447532  0.73818485     1.59600
O1748       O  0.39210918  0.91434490  0.71172668    -0.80500
O1749       O  0.46846253  0.94366510  0.69351540    -1.91000
Cd1750     Cd  0.47715711  0.49135318  0.69555659     1.59900
O1751       O  0.42828651  0.90542076  0.75072203    -0.80500
O1752       O  0.51042420  0.50370103  0.65852259    -0.79100
C1753       C  0.54327666  0.89282397  0.72014757     0.83400
C1754       C  0.45175292  0.87174786  0.63989169     0.83000
O1755       O  0.51766530  0.95783789  0.63087161    -0.78100
C1756       C  0.40865887  0.51116539  0.66734270     0.83900
O1757       O  0.53961259  0.90559069  0.69252775    -0.78200
C1758       C  0.39892765  0.90443599  0.73982405     0.84000
C1759       C  0.49802164  0.48766858  0.77071406     0.84300
O1760       O  0.48591295  0.45980873  0.77426930    -0.80600
C1761       C  0.23615400  0.90190217  0.02217352    -0.05100
C1762       C  0.23227259  0.92165757  0.99553167     0.09000
C1763       C  0.24940699  0.91461850  0.96748393    -0.02500
C1764       C  0.26700430  0.88583767  0.96435100    -0.00700
C1765       C  0.26533008  0.86240619  0.98875855    -0.04400
C1766       C  0.25169130  0.87166750  0.01865330     0.02700
C1767       C  0.20615622  0.94639722  0.99529689     0.09500
C1768       C  0.24792191  0.93668704  0.94140322     0.35400
C1769       C  0.25281098  0.85017439  0.04529525     0.38800
C1770       C  0.20475217  0.97837893  0.50012679    -0.04700
C1771       C  0.17828124  0.99693967  0.51153861     0.02400
C1772       C  0.14709605  0.98353357  0.51063350    -0.04300
C1773       C  0.14171267  0.95759256  0.48859079    -0.00600
C1774       C  0.17560917  0.93784163  0.98306173    -0.03100
C1775       C  0.23739960  0.98969243  0.50454490     0.36100
C1776       C  0.10897391  0.94784605  0.48108649     0.39700
C1777       C  0.18379224  0.02805453  0.52675304     0.38900
C1778       C  0.17109875  0.90673021  0.96704790     0.35800
C1779       C  0.20785821  0.91236759  0.54381638     0.36500
C1780       C  0.28498283  0.88015178  0.93481633     0.39700
N1781       N  0.18923158  0.05293336  0.53849614    -0.38300
N1782       N  0.26347505  0.99873250  0.50790574    -0.39900
N1783       N  0.08297657  0.94046685  0.47448579    -0.37700
N1784       N  0.16753073  0.88178993  0.95459491    -0.40000
N1785       N  0.24757367  0.95453773  0.92071832    -0.39800
N1786       N  0.29834557  0.87634260  0.91066044    -0.37500
N1787       N  0.25412933  0.83309277  0.06668058    -0.38500
N1788       N  0.19393982  0.92320165  0.56550711    -0.40200
C1789       C  0.12091003  0.80838980  0.61036633    -0.05100
C1790       C  0.15232324  0.81814517  0.60384025     0.09000
C1791       C  0.17290966  0.81356234  0.63007090    -0.02500
C1792       C  0.16137107  0.82395861  0.66066374    -0.00700
C1793       C  0.12747685  0.83010272  0.66469278    -0.04400
C1794       C  0.10671318  0.82067943  0.63882024     0.02700
C1795       C  0.15212933  0.85153364  0.59016659     0.09500
C1796       C  0.20696665  0.80852707  0.62440881     0.35400
C1797       C  0.07198398  0.82335983  0.64075374     0.38800
C1798       C  0.16290731  0.87788619  0.60947202    -0.04700
C1799       C  0.14466166  0.90638130  0.61174704     0.02400
C1800       C  0.11995872  0.91239794  0.58904389    -0.04300
C1801       C  0.11247252  0.88760164  0.56613312    -0.00600
C1802       C  0.12980426  0.85827661  0.56558620    -0.03100
C1803       C  0.19511591  0.87815733  0.62339580     0.36100
C1804       C  0.08659442  0.89170085  0.54314181     0.39700
C1805       C  0.16315191  0.43540864  0.63194830     0.38900
C1806       C  0.12537783  0.83510915  0.53930872     0.35800
C1807       C  0.10445595  0.78681945  0.58822171     0.36500
C1808       C  0.18496231  0.83302665  0.68498160     0.39700
N1809       N  0.17632643  0.45397259  0.64830956    -0.38300
N1810       N  0.22065896  0.87988722  0.63452353    -0.39900
N1811       N  0.06591518  0.89351039  0.52458077    -0.37700
N1812       N  0.12201778  0.81694936  0.51801441    -0.40000
N1813       N  0.23444951  0.80543324  0.62077641    -0.39800
N1814       N  0.20444883  0.84046562  0.70364003    -0.37500
N1815       N  0.04424195  0.82572258  0.64208268    -0.38500
N1816       N  0.09230902  0.76886202  0.57034628    -0.40200
C1817       C  0.18083968  0.56333086  0.63141190    -0.05100
C1818       C  0.19035593  0.54578357  0.65835927     0.09000
C1819       C  0.16792548  0.52536922  0.67257217    -0.02500
C1820       C  0.13982741  0.51653388  0.65531541    -0.00700
C1821       C  0.13554363  0.52730330  0.62355597    -0.04400
C1822       C  0.15231233  0.55506148  0.61501507     0.02700
C1823       C  0.22535099  0.54339306  0.66648154     0.09500
C1824       C  0.17511369  0.51126702  0.70322928     0.35400
C1825       C  0.14126656  0.57361519  0.58824853     0.38800
C1826       C  0.23964148  0.56492459  0.68871674    -0.04700
C1827       C  0.27356819  0.56603331  0.69149810     0.02400
C1828       C  0.29346166  0.54464209  0.67298536    -0.04300
C1829       C  0.27859595  0.52105133  0.65317726    -0.00600
C1830       C  0.24497155  0.52154561  0.64862131    -0.03100
C1831       C  0.21951636  0.58765129  0.70675513     0.36100
C1832       C  0.29782492  0.49776154  0.63517628     0.39700
C1833       C  0.28750975  0.59013222  0.71273214     0.38900
C1834       C  0.23107174  0.50245671  0.62245451     0.35800
C1835       C  0.20205871  0.58712435  0.61843968     0.36500
C1836       C  0.11750370  0.49399198  0.66880290     0.39700
N1837       N  0.29689084  0.60997151  0.73022264    -0.38300
N1838       N  0.20358127  0.60596546  0.72102751    -0.39900
N1839       N  0.31240504  0.47857265  0.62069400    -0.37700
N1840       N  0.22031061  0.48819353  0.60078817    -0.40000
N1841       N  0.18035707  0.49989704  0.72777128    -0.39800
N1842       N  0.09993319  0.47565789  0.67933721    -0.37500
N1843       N  0.12612846  0.08653959  0.56690727    -0.38500
N1844       N  0.21898582  0.60582327  0.60758984    -0.40200
C1845       C  0.32516106  0.00977665  0.77085360    -0.05100
C1846       C  0.30647210  0.03253809  0.78880555     0.09000
C1847       C  0.31912672  0.56222284  0.79020989    -0.02500
C1848       C  0.34485655  0.57403161  0.77261955    -0.00700
C1849       C  0.36444221  0.55283633  0.75377274    -0.04400
C1850       C  0.35212829  0.01972354  0.75378320     0.02700
C1851       C  0.27915974  0.02166131  0.80865271     0.09500
C1852       C  0.30187449  0.58405937  0.81208636     0.35400
C1853       C  0.37388317  0.99611510  0.73951081     0.38800
C1854       C  0.27956853  0.02615677  0.84252904    -0.04700
C1855       C  0.25433365  0.01417542  0.86086430     0.02400
C1856       C  0.23179411  0.99326885  0.84607116    -0.04300
C1857       C  0.23165447  0.98842571  0.81238258    -0.00600
C1858       C  0.25352681  0.00498121  0.79365712    -0.03100
C1859       C  0.30642117  0.04174914  0.85888698     0.36100
C1860       C  0.21006546  0.96552008  0.79686943     0.39700
C1861       C  0.25263350  0.02215442  0.89503433     0.38900
C1862       C  0.25050649  0.00377571  0.75889947     0.35800
C1863       C  0.31677818  0.97605421  0.76975677     0.36500
C1864       C  0.35248443  0.60776391  0.77713514     0.39700
N1865       N  0.25111971  0.02898826  0.92215139    -0.38300
N1866       N  0.32747349  0.05448368  0.87214656    -0.39900
N1867       N  0.19357300  0.94674656  0.78427695    -0.37700
N1868       N  0.24863536  0.00246549  0.73116468    -0.40000
N1869       N  0.28927391  0.60157206  0.83019264    -0.39800
N1870       N  0.35714092  0.63474549  0.78239329    -0.37500
N1871       N  0.39247232  0.97783737  0.72910377    -0.38500
N1872       N  0.30901341  0.94948810  0.76773702    -0.40200
C1873       C  0.39420757  0.75963965  0.78158593    -0.05100
C1874       C  0.41006114  0.74384393  0.75568259     0.09000
C1875       C  0.41000925  0.75849067  0.72529246    -0.02500
C1876       C  0.38998271  0.78539184  0.72087828    -0.00700
C1877       C  0.36398310  0.78903027  0.74171975    -0.04400
C1878       C  0.37015041  0.78262415  0.77443310     0.02700
C1879       C  0.41357640  0.70822186  0.75524799     0.09500
C1880       C  0.42074212  0.73958767  0.69761435     0.35400
C1881       C  0.34876635  0.79477435  0.79939015     0.38800
C1882       C  0.38623644  0.69102967  0.74520310    -0.04700
C1883       C  0.38957359  0.66238041  0.72695136     0.02400
C1884       C  0.41992936  0.64714405  0.72405667    -0.04300
C1885       C  0.44740744  0.66528424  0.73262697    -0.00600
C1886       C  0.44411218  0.69456526  0.75016750    -0.03100
C1887       C  0.35456022  0.70292838  0.75413390     0.36100
C1888       C  0.47780279  0.65658250  0.71796992     0.39700
C1889       C  0.36238569  0.65120331  0.70824957     0.38900
C1890       C  0.47142498  0.71071652  0.76415523     0.35800
C1891       C  0.39809575  0.74794072  0.81382293     0.36500
C1892       C  0.38852139  0.80271580  0.69147651     0.39700
N1893       N  0.34021308  0.64431538  0.69281215    -0.38300
N1894       N  0.32971563  0.71215536  0.76297252    -0.39900
N1895       N  0.50100600  0.64956171  0.70411646    -0.37700
N1896       N  0.49211881  0.72398118  0.77726970    -0.40000
N1897       N  0.42810793  0.72123761  0.67749994    -0.39800
N1898       N  0.38478766  0.81830851  0.66923766    -0.37500
N1899       N  0.33176062  0.80387797  0.81973537    -0.38500
N1900       N  0.40120375  0.73865034  0.83961296    -0.40200
C1901       C  0.46457468  0.57807113  0.83518455    -0.05100
C1902       C  0.47639707  0.60941840  0.83081722     0.09000
C1903       C  0.49575480  0.61440291  0.80330485    -0.02500
C1904       C  0.49796223  0.58995453  0.77931430    -0.00700
C1905       C  0.47389622  0.56651313  0.77832350    -0.04400
C1906       C  0.46209137  0.55676992  0.80837785     0.02700
C1907       C  0.46848215  0.63601297  0.85493149     0.09500
C1908       C  0.51251052  0.64421264  0.79858086     0.35400
C1909       C  0.44395653  0.52734362  0.81090680     0.38800
C1910       C  0.49334342  0.65319541  0.87034612    -0.04700
C1911       C  0.98680388  0.67808361  0.89440742     0.02400
C1912       C  0.45606158  0.67519934  0.90996697    -0.04300
C1913       C  0.43004706  0.66204708  0.89253805    -0.00600
C1914       C  0.43618453  0.64263431  0.86466982    -0.03100
C1915       C  0.02661543  0.64294405  0.86746170     0.36100
C1916       C  0.39774901  0.66514783  0.90536534     0.39700
C1917       C  0.01351087  0.69528617  0.90922771     0.38900
C1918       C  0.40967921  0.62573092  0.84951517     0.35800
C1919       C  0.45429579  0.56830376  0.86666574     0.36500
C1920       C  0.51907594  0.59300609  0.75199281     0.39700
N1921       N  0.03578457  0.70764887  0.92061593    -0.38300
N1922       N  0.05248617  0.63276368  0.86535218    -0.39900
N1923       N  0.37400797  0.68901684  0.41855670    -0.37700
N1924       N  0.38840528  0.61114578  0.83898578    -0.40000
N1925       N  0.52715510  0.66724946  0.79462803    -0.39800
N1926       N  0.53615844  0.59581671  0.73039096    -0.37500
N1927       N  0.42924012  0.50403249  0.81304024    -0.38500
N1928       N  0.44637871  0.56052599  0.89189184    -0.40200
C1929       C  0.36291902  0.89528520  0.96516457    -0.05100
C1930       C  0.37198589  0.89071966  0.93302192     0.09000
C1931       C  0.36957102  0.85947012  0.91831847    -0.02500
C1932       C  0.36076242  0.83298227  0.93666874    -0.00700
C1933       C  0.35459415  0.83718484  0.96971916    -0.04400
C1934       C  0.35160720  0.86937415  0.98253941     0.02700
C1935       C  0.37862757  0.91925456  0.91324077     0.09500
C1936       C  0.37554616  0.85418944  0.88423681     0.35400
C1937       C  0.33575837  0.87704870  0.01282567     0.38800
C1938       C  0.40595409  0.91843886  0.89345369    -0.04700
C1939       C  0.40192161  0.92427522  0.86052613     0.02400
C1940       C  0.37017002  0.92914752  0.84874956    -0.04300
C1941       C  0.34599711  0.93959461  0.87042253    -0.00600
C1942       C  0.35177547  0.93735673  0.90326627    -0.03100
C1943       C  0.43615225  0.90598137  0.90573358     0.36100
C1944       C  0.31363723  0.94630070  0.85935244     0.39700
C1945       C  0.42907191  0.91996047  0.83902038     0.38900
C1946       C  0.32969957  0.95209857  0.92617713     0.35800
C1947       C  0.36611148  0.92677420  0.98063560     0.36500
C1948       C  0.35515479  0.80201616  0.92092981     0.39700
N1949       N  0.45100038  0.91651063  0.82215337    -0.38300
N1950       N  0.46029785  0.89591555  0.91536996    -0.39900
N1951       N  0.28756629  0.94923215  0.85006759    -0.37700
N1952       N  0.31313223  0.96534645  0.94462112    -0.40000
N1953       N  0.38052175  0.84932776  0.85717577    -0.39800
N1954       N  0.34963466  0.77788399  0.90765223    -0.37500
N1955       N  0.32282204  0.88434520  0.03654872    -0.36500
N1956       N  0.36910721  0.95221347  0.99210097    -0.40200
C1957       C  0.05592170  0.78661020  0.96345816    -0.05100
C1958       C  0.03718753  0.76520323  0.98084514     0.09000
C1959       C  0.05104537  0.73622739  0.99163619    -0.02500
C1960       C  0.08168606  0.72682395  0.98111806    -0.00700
C1961       C  0.09756679  0.74486648  0.95785069    -0.04400
C1962       C  0.08644308  0.77660407  0.95203012     0.02700
C1963       C  0.00230326  0.77100618  0.98611186     0.09500
C1964       C  0.03285566  0.71438297  0.01108949     0.35400
C1965       C  0.10539674  0.79873274  0.93382384     0.38800
C1966       C  0.98020098  0.76479246  0.96081878    -0.04700
C1967       C  0.44493444  0.75747633  0.96707132     0.02400
C1968       C  0.43456081  0.75892084  0.99939117    -0.04300
C1969       C  0.96075528  0.76112466  0.02436947    -0.00600
C1970       C  0.99131402  0.77253262  0.01779492    -0.03100
C1971       C  0.48745219  0.76446332  0.92648523     0.36100
C1972       C  0.95740860  0.74291572  0.05300248     0.39700
C1973       C  0.42269511  0.74857989  0.94163782     0.38900
C1974       C  0.01213496  0.78363409  0.04382346     0.35800
C1975       C  0.04311099  0.81818910  0.95623415     0.36500
C1976       C  0.09532515  0.69670639  0.99170414     0.39700
N1977       N  0.40564756  0.74060830  0.92096648    -0.38300
N1978       N  0.49491644  0.76649158  0.89987500    -0.39900
N1979       N  0.95482838  0.72266040  0.56926709    -0.37700
N1980       N  0.02822758  0.79336077  0.06459042    -0.40000
N1981       N  0.01870555  0.69681849  0.02669318    -0.39800
N1982       N  0.10619232  0.67218658  0.99859374    -0.37500
N1983       N  0.12036106  0.81679404  0.91958414    -0.38500
N1984       N  0.03281795  0.84333419  0.95043854    -0.40200
C1985       C  0.95123617  0.93960198  0.56748006    -0.05100
C1986       C  0.91749396  0.94388475  0.56960139     0.09000
C1987       C  0.40382462  0.97687731  0.56647644    -0.02500
C1988       C  0.92457070  0.00131762  0.56171571    -0.00700
C1989       C  0.95719605  0.99539657  0.55409208    -0.04400
C1990       C  0.96897516  0.96344908  0.55335379     0.02700
C1991       C  0.39807570  0.91643134  0.56270222     0.09500
C1992       C  0.36933795  0.98189820  0.56555371     0.35400
C1993       C  0.99964127  0.95499587  0.53857154     0.38800
C1994       C  0.38166257  0.89978754  0.58658403    -0.04700
C1995       C  0.37652752  0.86639061  0.58241940     0.02400
C1996       C  0.39152671  0.84928283  0.55665807    -0.04300
C1997       C  0.40772093  0.86681407  0.53280858    -0.00600
C1998       C  0.40678368  0.90024883  0.53386751    -0.03100
C1999       C  0.37024785  0.91658127  0.61526258     0.36100
C2000       C  0.43278704  0.84040979  0.01013085     0.39700
C2001       C  0.35480761  0.85008409  0.60353889     0.38900
C2002       C  0.92150807  0.91631650  0.50689758     0.35800
C2003       C  0.96640427  0.90830057  0.57208222     0.36500
C2004       C  0.41270653  0.03577892  0.56312478     0.39700
N2005       N  0.33673269  0.83742614  0.61993173    -0.38300
N2006       N  0.36104525  0.92883121  0.63880655    -0.39900
N2007       N  0.44881801  0.82962461  0.98978233    -0.37700
N2008       N  0.93267406  0.93067438  0.48638948    -0.40000
N2009       N  0.34185870  0.98635135  0.56385345    -0.39800
N2010       N  0.40413991  0.56649753  0.56401790    -0.37500
N2011       N  0.02370020  0.94820174  0.52614166    -0.38500
N2012       N  0.97885072  0.88342624  0.57430249    -0.40200
C2013       C  0.06954458  0.76604638  0.79013360    -0.05100
C2014       C  0.06643931  0.76765357  0.75654745     0.09000
C2015       C  0.09425892  0.76921779  0.73755685    -0.02500
C2016       C  0.12490255  0.76731454  0.75148352    -0.00700
C2017       C  0.12824186  0.75959615  0.78456950    -0.04400
C2018       C  0.10031233  0.76217968  0.80409544     0.02700
C2019       C  0.03454312  0.76806288  0.73994940     0.09500
C2020       C  0.09136103  0.76856682  0.70283531     0.35400
C2021       C  0.10205130  0.76105056  0.83862550     0.38800
C2022       C  0.01519208  0.79589925  0.74133334    -0.04700
C2023       C  0.49130833  0.80011938  0.71693601     0.02400
C2024       C  0.49019563  0.77887929  0.68954246    -0.04300
C2025       C  0.50677893  0.74920722  0.69064821    -0.00600
C2026       C  0.52708722  0.74303446  0.71703364    -0.03100
C2027       C  0.02052374  0.82062598  0.76604317     0.36100
C2028       C  0.50520639  0.72612365  0.66395872     0.39700
C2029       C  0.46841154  0.82638360  0.72070580     0.38900
C2030       C  0.04283197  0.71218875  0.71995106     0.35800
C2031       C  0.04119630  0.76669604  0.81046116     0.36500
C2032       C  0.15227881  0.76970436  0.73006149     0.39700
N2033       N  0.44978231  0.84713428  0.72355121    -0.38300
N2034       N  0.02473678  0.84007840  0.78599893    -0.39900
N2035       N  0.50433745  0.70761611  0.64272872    -0.37700
N2036       N  0.05494845  0.68728137  0.72303112    -0.40000
N2037       N  0.08856876  0.76579570  0.67529710    -0.39800
N2038       N  0.17391507  0.77013495  0.71266672    -0.37500
N2039       N  0.09984512  0.76098310  0.86626432    -0.38500
N2040       N  0.51822076  0.76893134  0.82700306    -0.40200
C2041       C  0.12998070  0.61761366  0.81640442    -0.05100
C2042       C  0.15678105  0.59920650  0.80544028     0.09000
C2043       C  0.18810254  0.60922378  0.81334854    -0.02500
C2044       C  0.19207109  0.63763666  0.83171183    -0.00700
C2045       C  0.16651858  0.66018016  0.83191053    -0.04400
C2046       C  0.13479825  0.64881446  0.82897250     0.02700
C2047       C  0.15138011  0.56696648  0.79059169     0.09500
C2048       C  0.21539766  0.59163020  0.80010987     0.35400
C2049       C  0.10762548  0.67018959  0.83512356     0.38800
C2050       C  0.13289472  0.56409473  0.76216388    -0.04700
C2051       C  0.11188745  0.53798419  0.75861003     0.02400
C2052       C  0.11021250  0.51606106  0.78367517    -0.04300
C2053       C  0.13662163  0.51309073  0.80447592    -0.00600
C2054       C  0.15583187  0.54015474  0.81013453    -0.03100
C2055       C  0.13079067  0.59064456  0.74042059     0.36100
C2056       C  0.13780660  0.48552709  0.82478604     0.39700
C2057       C  0.58732246  0.53612650  0.73330664     0.38900
C2058       C  0.17422995  0.54416083  0.83951597     0.35800
C2059       C  0.09773975  0.60494148  0.81305120     0.36500
C2060       C  0.22351302  0.64752765  0.84325954     0.39700
N2061       N  0.56847880  0.53516874  0.71271988    -0.38300
N2062       N  0.12870000  0.61194387  0.72320977    -0.39900
N2063       N  0.13678010  0.46247638  0.83957178    -0.37700
N2064       N  0.18891602  0.55126580  0.86227240    -0.40000
N2065       N  0.23596161  0.57694482  0.78787549    -0.39800
N2066       N  0.24822015  0.65613332  0.85291429    -0.37500
N2067       N  0.08619192  0.68769234  0.83985687    -0.38500
N2068       N  0.07245033  0.59394740  0.80990203    -0.40200
C2069       C  0.15520086  0.68871122  0.69201092    -0.05100
C2070       C  0.18121041  0.68295597  0.67104704     0.09000
C2071       C  0.21234650  0.67716843  0.68380031    -0.02500
C2072       C  0.21842642  0.68450240  0.71653025    -0.00700
C2073       C  0.19275378  0.69424138  0.73638797    -0.04400
C2074       C  0.16085257  0.69055586  0.72487995     0.02700
C2075       C  0.17616168  0.68768435  0.63624018     0.09500
C2076       C  0.23774938  0.66429906  0.66333583     0.35400
C2077       C  0.13382345  0.68767582  0.74645329     0.38800
C2078       C  0.19019887  0.71451511  0.62177199    -0.04700
C2079       C  0.18372184  0.72053690  0.58929960     0.02400
C2080       C  0.16582542  0.69791386  0.57132935    -0.04300
C2081       C  0.14439203  0.67861972  0.58809001    -0.00600
C2082       C  0.15280271  0.66964542  0.61911338    -0.03100
C2083       C  0.21252264  0.73427354  0.63995399     0.36100
C2084       C  0.11582558  0.66559071  0.57279236     0.39700
C2085       C  0.20027431  0.74537151  0.57242091     0.38900
C2086       C  0.13720522  0.64245476  0.63334386     0.35800
C2087       C  0.12285161  0.69431606  0.67984290     0.36500
C2088       C  0.25027020  0.68091600  0.73000360     0.39700
N2089       N  0.21336951  0.76461572  0.55797753    -0.38300
N2090       N  0.23048166  0.74872734  0.65573165    -0.39900
N2091       N  0.09234244  0.65499429  0.56213860    -0.37700
N2092       N  0.12416942  0.62137860  0.64512450    -0.40000
N2093       N  0.25805025  0.65336893  0.64734241    -0.39800
N2094       N  0.27558848  0.67759485  0.74107044    -0.37500
N2095       N  0.11187216  0.68451914  0.76303850    -0.38500
N2096       N  0.09746636  0.69780560  0.66889536    -0.40200
C2097       C  0.73068587  0.15455109  0.03525314     0.80600
N2098       N  0.71523483  0.13104040  0.01661720    -0.77700
C2099       C  0.68177188  0.13240973  0.01410346     0.83000
N2100       N  0.66553333  0.15615659  0.02975446    -0.77700
C2101       C  0.68020596  0.17855614  0.04796898     0.83100
N2102       N  0.71257992  0.17737376  0.05058757    -0.79400
C2103       C  0.54450015  0.02186977  0.34373830     0.80600
N2104       N  0.57310385  0.02137875  0.32839697    -0.77700
C2105       C  0.57610338  0.01194374  0.29711747     0.83000
N2106       N  0.54986760  0.00381868  0.28013068    -0.77700
C2107       C  0.02047124  0.00328473  0.29371031     0.83100
N2108       N  0.51729599  0.01209384  0.32635459    -0.79400
C2109       C  0.94591325  0.33581818  0.13449036     0.80600
N2110       N  0.92272262  0.31678507  0.11905679    -0.77700
C2111       C  0.92432505  0.28324404  0.12145532     0.83000
N2112       N  0.94724133  0.27049530  0.14085661    -0.77700
C2113       C  0.96833325  0.28927726  0.15726759     0.83100
N2114       N  0.96819237  0.32101942  0.15257082    -0.79400
C2115       C  0.65215130  0.24063597  0.29482843     0.80600
N2116       N  0.64754040  0.21617608  0.31537975    -0.77700
C2117       C  0.66903128  0.19110257  0.31620358     0.83000
N2118       N  0.69183664  0.18836329  0.29320229    -0.77700
C2119       C  0.69334372  0.20969552  0.27000617     0.83100
N2120       N  0.67736887  0.23788823  0.27435206    -0.79400
O2121       O  0.75949781  0.31588478  0.38844984    -0.78100
C2122       C  0.79104473  0.36139279  0.29442598     0.82900
O2123       O  0.66942766  0.37104241  0.37165665    -0.79200
O2124       O  0.67643021  0.34884926  0.26847131    -0.80700
O2125       O  0.75509587  0.25568415  0.29040529    -0.80500
O2126       O  0.76258596  0.26361213  0.37947804    -0.79100
Zn2127     Zn  0.74619319  0.34177269  0.35089510     1.55700
O2128       O  0.72978910  0.28659918  0.25457820    -0.80500
Cd2129     Cd  0.73335486  0.26891488  0.33614172     1.59700
Cd2130     Cd  0.67200231  0.32498357  0.34487710     1.59600
O2131       O  0.69584734  0.24123844  0.35442379    -0.80500
O2132       O  0.71749724  0.31542333  0.32775220    -1.91000
Cd2133     Cd  0.72323798  0.32930075  0.28171759     1.59900
O2134       O  0.66238890  0.28114596  0.37108775    -0.80500
O2135       O  0.76911903  0.35596301  0.27291599    -0.79100
C2136       C  0.69261025  0.39119133  0.37358648     0.83400
C2137       C  0.76529843  0.28778281  0.39881142     0.83000
O2138       O  0.78477859  0.35491037  0.32369083    -0.78100
C2139       C  0.75059568  0.26498642  0.26124003     0.83900
O2140       O  0.72125522  0.38202655  0.36606851    -0.78200
C2141       C  0.67202649  0.25128623  0.37156274     0.84000
C2142       C  0.64667261  0.34669140  0.27758373     0.84300
O2143       O  0.63975146  0.33501079  0.30503024    -0.80600
C2144       C  0.51695215  0.00758123  0.10112027     0.80600
N2145       N  0.48878543  0.51625750  0.09477217    -0.77700
C2146       C  0.48052851  0.51677599  0.06352633     0.83000
N2147       N  0.50407611  0.52029772  0.04137472    -0.77700
C2148       C  0.53509049  0.01959567  0.04802511     0.83100
N2149       N  0.54192637  0.00920932  0.07897155    -0.79400
C2150       C  0.63283551  0.17836245  0.40998189     0.80600
N2151       N  0.61594747  0.19529613  0.43243772    -0.77700
C2152       C  0.61884629  0.22737705  0.43735120     0.83000
N2153       N  0.63796533  0.24367831  0.41762317    -0.77700
C2154       C  0.65477453  0.22872879  0.39363885     0.83100
N2155       N  0.65303434  0.19531373  0.39013581    -0.79400
C2156       C  0.82321586  0.37902233  0.29013901     0.80600
N2157       N  0.83285019  0.39336266  0.31796201    -0.77700
C2158       C  0.86022448  0.41014526  0.32110357     0.83000
N2159       N  0.88014155  0.41171313  0.29603932    -0.77700
C2160       C  0.87283334  0.39780568  0.26722334     0.83100
N2161       N  0.84345500  0.38142512  0.26343398    -0.79400
C2162       C  0.85613874  0.31090558  0.49802678     0.80600
N2163       N  0.88155010  0.29134672  0.48922388    -0.77700
C2164       C  0.90383152  0.28228814  0.51159452     0.83000
N2165       N  0.90399211  0.29154946  0.03796783    -0.77700
C2166       C  0.88058679  0.31337928  0.04505133     0.83100
N2167       N  0.85275714  0.31894302  0.52943705    -0.79400
O2168       O  0.52836898  0.11014462  0.44926992    -0.78100
C2169       C  0.62510909  0.14243338  0.40901509     0.82900
O2170       O  0.54909943  0.01650079  0.40210473    -0.79200
O2171       O  0.65488919  0.03029363  0.41911934    -0.80700
O2172       O  0.62961343  0.11103742  0.00499865    -0.80500
O2173       O  0.53973070  0.11381663  0.00133253    -0.79100
Zn2174     Zn  0.56765403  0.09427420  0.42294362     1.55700
O2175       O  0.66942944  0.08974613  0.97501600    -0.80500
Cd2176     Cd  0.58537724  0.08672948  0.99560403     1.59700
Cd2177     Cd  0.57885621  0.02247231  0.44567612     1.59600
O2178       O  0.57915797  0.04903320  0.02744453    -0.80500
O2179       O  0.59385435  0.06889581  0.45046192    -1.91000
Cd2180     Cd  0.64057924  0.07642786  0.43684365     1.59900
O2181       O  0.55609857  0.51380535  0.99450497    -0.80500
O2182       O  0.64674767  0.12015306  0.40947642    -0.79100
C2183       C  0.54647163  0.03552646  0.37823241     0.83400
C2184       C  0.51933843  0.11772118  0.97842750     0.83000
O2185       O  0.59565790  0.13505145  0.41417470    -0.78100
C2186       C  0.65976392  0.10902210  0.99733443     0.83900
O2187       O  0.55388441  0.06539868  0.38227695    -0.78200
C2188       C  0.55917950  0.02646587  0.02195480     0.84000
C2189       C  0.64574628  0.50127121  0.41818700     0.84300
O2190       O  0.61868003  0.49339137  0.43038599    -0.80600
C2191       C  0.48727552  0.13591921  0.98073946     0.80600
N2192       N  0.46456988  0.13921646  0.00519433    -0.77700
C2193       C  0.43506709  0.15467820  0.99868872     0.83000
N2194       N  0.93466472  0.17273342  0.46930189    -0.77700
C2195       C  0.45925377  0.17299399  0.44752251     0.83100
N2196       N  0.48616429  0.15631603  0.45418465    -0.79400
C2197       C  0.79926679  0.24726795  0.18562143     0.80600
N2198       N  0.82724819  0.26016261  0.19672553    -0.77700
C2199       C  0.83045526  0.27264103  0.22723160     0.83000
N2200       N  0.80515109  0.27162953  0.24713232    -0.77700
C2201       C  0.77671248  0.25920012  0.23750062     0.83100
N2202       N  0.77322062  0.24709015  0.20628531    -0.79400
C2203       C  0.68835972  0.42719248  0.37901267     0.80600
N2204       N  0.66604917  0.44400267  0.39831725    -0.77700
C2205       C  0.66831331  0.47747080  0.40130594     0.83000
N2206       N  0.69176994  0.49222899  0.38517500    -0.77700
C2207       C  0.71183779  0.47627181  0.36525850     0.83100
N2208       N  0.71013198  0.44410798  0.36242091    -0.79400
C2209       C  0.92459810  0.10342139  0.22251958     0.80600
N2210       N  0.89717619  0.08626766  0.22447808    -0.77700
C2211       C  0.89617420  0.05958082  0.24231955     0.83000
N2212       N  0.92253818  0.05014601  0.25876698    -0.77700
C2213       C  0.95016652  0.06669391  0.25738923     0.83100
N2214       N  0.95091530  0.09279205  0.23854370    -0.79400
O2215       O  0.79999487  0.20270127  0.14592639    -0.78100
C2216       C  0.76581344  0.15590886  0.04477946     0.82900
O2217       O  0.88456461  0.13697032  0.11999413    -0.79200
O2218       O  0.87900255  0.16618894  0.01068763    -0.80700
O2219       O  0.80784763  0.26182110  0.04057085    -0.80500
O2220       O  0.80722881  0.25221717  0.12866961    -0.79100
Zn2221     Zn  0.81052174  0.17371196  0.10379355     1.55700
O2222       O  0.81802195  0.22427941  0.50223122    -0.80500
Cd2223     Cd  0.83109181  0.24375402  0.08350337     1.59700
Cd2224     Cd  0.88549576  0.18224859  0.09228554     1.59600
O2225       O  0.87396425  0.26911061  0.09420653    -0.80500
O2226       O  0.84057263  0.19566843  0.07654099    -1.91000
Cd2227     Cd  0.83251235  0.18357075  0.02895961     1.59900
O2228       O  0.90450375  0.22852326  0.11185446    -0.80500
O2229       O  0.78882130  0.15523589  0.02409699    -0.79100
C2230       C  0.85954353  0.11953967  0.12456183     0.83400
C2231       C  0.80010224  0.23328697  0.15139042     0.83000
O2232       O  0.77135681  0.16375243  0.07443289    -0.78100
C2233       C  0.80677622  0.25194223  0.51109653     0.83900
O2234       O  0.83158159  0.13110733  0.11778425    -0.78200
C2235       C  0.89954104  0.25918421  0.10816131     0.84000
C2236       C  0.90795902  0.16244357  0.02197117     0.84300
O2237       O  0.91403239  0.16718744  0.05190628    -0.80600
C2238       C  0.85916805  0.08616235  0.13983315     0.80600
N2239       N  0.88479625  0.06513169  0.14577201    -0.77700
C2240       C  0.87888275  0.03500231  0.15877252     0.83000
N2241       N  0.84788343  0.02728856  0.16607591    -0.77700
C2242       C  0.82321774  0.04849387  0.16158213     0.83100
N2243       N  0.82925807  0.07687464  0.14814341    -0.79400
C2244       C  0.57376601  0.37219943  0.22482923     0.80600
N2245       N  0.59182266  0.36843665  0.25308317    -0.77700
C2246       C  0.62142701  0.35200499  0.25147934     0.83000
N2247       N  0.63127069  0.33994356  0.22281657    -0.77700
C2248       C  0.61432972  0.34305195  0.19560924     0.83100
N2249       N  0.58594236  0.35944642  0.19679915    -0.79400
C2250       C  0.76994342  0.28726172  0.43491981     0.80600
N2251       N  0.75895481  0.31475875  0.44826774    -0.77700
C2252       C  0.76452884  0.32420291  0.47852249     0.83000
N2253       N  0.77985355  0.30348562  0.49836792    -0.77700
C2254       C  0.79010205  0.27376483  0.48709393     0.83100
N2255       N  0.78580344  0.26562994  0.45442291    -0.79400
C2256       C  0.63080042  0.48354136  0.04051793     0.80600
N2257       N  0.62278931  0.45387514  0.04970189    -0.77700
C2258       C  0.61696423  0.44700872  0.08042906     0.83000
N2259       N  0.61442604  0.96999559  0.10261949    -0.77700
C2260       C  0.62201059  0.00067669  0.09497488     0.83100
N2261       N  0.63234121  0.50756253  0.06327403    -0.79400
O2262       O  0.97555642  0.38363564  0.14485958    -0.78100
C2263       C  0.51614643  0.98949276  0.13227492     0.82900
O2264       O  0.01906573  0.39354266  0.24040703    -0.79200
O2265       O  0.99351355  0.00419000  0.24267278    -0.80700
O2266       O  0.89865500  0.97946580  0.16233976    -0.80500
O2267       O  0.92227464  0.38961841  0.14698988    -0.79100
Zn2268     Zn  0.99925815  0.42338662  0.16504782     1.55700
O2269       O  0.93113263  0.01877502  0.18093529    -0.80500
Cd2270     Cd  0.92083091  0.43339660  0.17783853     1.59700
Cd2271     Cd  0.97461319  0.42371851  0.23914098     1.59600
O2272       O  0.89095517  0.41537464  0.21502397    -0.80500
O2273       O  0.96717529  0.44312650  0.19462159    -1.91000
Cd2274     Cd  0.97403396  0.99279371  0.19522768     1.59900
O2275       O  0.92810214  0.40438295  0.25256186    -0.80500
O2276       O  0.00661154  0.00535432  0.15757539    -0.79100
C2277       C  0.04178599  0.39113981  0.21931431     0.83400
C2278       C  0.94718966  0.37223277  0.13991321     0.83000
O2279       O  0.01527890  0.45767620  0.13102197    -0.78100
C2280       C  0.90486541  0.00989487  0.16689496     0.83900
O2281       O  0.03740722  0.40338954  0.19150649    -0.78200
C2282       C  0.89845228  0.40424140  0.24247461     0.84000
C2283       C  0.99538832  0.99083052  0.27036921     0.84300
O2284       O  0.98373990  0.96292782  0.27452528    -0.80600
C2285       C  0.72761754  0.39894822  0.51939601    -0.05100
C2286       C  0.72606390  0.41953528  0.49326228     0.09000
C2287       C  0.74340494  0.41178491  0.46556461    -0.02500
C2288       C  0.75880226  0.38180370  0.46207361    -0.00700
C2289       C  0.75591973  0.35842647  0.48639542    -0.04400
C2290       C  0.74136776  0.36790867  0.51573904     0.02700
C2291       C  0.70265978  0.44693048  0.49359426     0.09500
C2292       C  0.74534586  0.43491532  0.44063745     0.35400
C2293       C  0.73958504  0.34556070  0.54136862     0.38800
C2294       C  0.70655376  0.47643518  0.00001005    -0.04700
C2295       C  0.68080292  0.49626719  0.01089538     0.02400
C2296       C  0.64904413  0.48421592  0.00980855    -0.04300
C2297       C  0.64275156  0.45808790  0.98822666    -0.00600
C2298       C  0.67098423  0.44161964  0.48254013    -0.03100
C2299       C  0.73963478  0.48635704  0.00467639     0.36100
C2300       C  0.60963408  0.44918811  0.98137047     0.39700
C2301       C  0.68781397  0.52668255  0.02697342     0.38900
C2302       C  0.66323535  0.41212665  0.46485338     0.35800
C2303       C  0.71099238  0.41045809  0.04462250     0.36500
C2304       C  0.77642698  0.37552609  0.43244564     0.39700
N2305       N  0.69468213  0.55075431  0.03962329    -0.38300
N2306       N  0.76609840  0.49417821  0.00828360    -0.39900
N2307       N  0.58321814  0.44254555  0.97549701    -0.37700
N2308       N  0.65701190  0.38860573  0.45077547    -0.40000
N2309       N  0.74768099  0.45341495  0.42073187    -0.39800
N2310       N  0.78953034  0.37220552  0.40812359    -0.37500
N2311       N  0.73867457  0.32710764  0.56151262    -0.38500
N2312       N  0.69968314  0.42233378  0.06733203    -0.40200
C2313       C  0.62186680  0.30984763  0.10963323    -0.05100
C2314       C  0.65385455  0.31887340  0.10423335     0.09000
C2315       C  0.67386268  0.31346499  0.13064997    -0.02500
C2316       C  0.66185231  0.32320630  0.16121610    -0.00700
C2317       C  0.62787615  0.32924888  0.16491869    -0.04400
C2318       C  0.60746176  0.32034016  0.13866726     0.02700
C2319       C  0.65578279  0.35207470  0.09049539     0.09500
C2320       C  0.70796879  0.30809118  0.12533502     0.35400
C2321       C  0.57264914  0.32159673  0.14096752     0.38800
C2322       C  0.66620930  0.37813930  0.11043394    -0.04700
C2323       C  0.64850366  0.40706735  0.11198472     0.02400
C2324       C  0.62420727  0.41310613  0.08880284    -0.04300
C2325       C  0.61728992  0.38834984  0.06558286    -0.00600
C2326       C  0.63504232  0.35933589  0.06492215    -0.03100
C2327       C  0.69822686  0.37791159  0.12473169     0.36100
C2328       C  0.59132629  0.39183158  0.04256203     0.39700
C2329       C  0.66172345  0.93017624  0.12913203     0.38900
C2330       C  0.63302123  0.33717251  0.03747961     0.35800
C2331       C  0.60421807  0.29214988  0.08506549     0.36500
C2332       C  0.68519917  0.33119461  0.18613547     0.39700
N2333       N  0.67471363  0.94884248  0.14556544    -0.38300
N2334       N  0.72387643  0.37907716  0.13572886    -0.39900
N2335       N  0.57056128  0.39272618  0.02403381    -0.37700
N2336       N  0.63174620  0.31987743  0.01523288    -0.40000
N2337       N  0.73541870  0.30425400  0.12193084    -0.39800
N2338       N  0.70462169  0.33748700  0.20524259    -0.37500
N2339       N  0.54484481  0.32247854  0.14278258    -0.38500
N2340       N  0.59057192  0.27750259  0.06538211    -0.40200
C2341       C  0.67541355  0.06200728  0.12967959    -0.05100
C2342       C  0.68558089  0.04442438  0.15634473     0.09000
C2343       C  0.66396177  0.02298993  0.17025491    -0.02500
C2344       C  0.63613437  0.01350636  0.15299988    -0.00700
C2345       C  0.63164745  0.02414907  0.12127285    -0.04400
C2346       C  0.64745506  0.05254448  0.11288971     0.02700
C2347       C  0.72078028  0.04159662  0.16307055     0.09500
C2348       C  0.67212267  0.00812029  0.20026579     0.35400
C2349       C  0.63595680  0.07074190  0.08611729     0.38800
C2350       C  0.73601183  0.06164813  0.18599962    -0.04700
C2351       C  0.76998864  0.06177658  0.18805265     0.02400
C2352       C  0.78890879  0.04083568  0.16803764    -0.04300
C2353       C  0.77307053  0.01829250  0.14780255    -0.00600
C2354       C  0.73940949  0.01993348  0.14396242    -0.03100
C2355       C  0.71681318  0.08361044  0.20593226     0.36100
C2356       C  0.79120366  0.99403783  0.12987826     0.39700
C2357       C  0.78498497  0.08395343  0.21066382     0.38900
C2358       C  0.72419988  0.00199988  0.11776650     0.35800
C2359       C  0.69547902  0.08724848  0.11753471     0.36500
C2360       C  0.61416653  0.99067443  0.16650542     0.39700
N2361       N  0.79507588  0.10224835  0.22942445    -0.38300
N2362       N  0.70166877  0.10127929  0.22179315    -0.39900
N2363       N  0.80471637  0.97369857  0.11591060    -0.37700
N2364       N  0.71173625  0.98893675  0.09629721    -0.40000
N2365       N  0.67837388  0.99601193  0.22420251    -0.39800
N2366       N  0.59666584  0.97229735  0.17706831    -0.37500
N2367       N  0.63022873  0.58727308  0.06509253    -0.38500
N2368       N  0.71132021  0.10736022  0.10758195    -0.40200
C2369       C  0.83209831  0.50880065  0.27368525    -0.05100
C2370       C  0.81263033  0.53108806  0.29118610     0.09000
C2371       C  0.81891218  0.06245165  0.28893819    -0.02500
C2372       C  0.84617696  0.07230078  0.27245350    -0.00700
C2373       C  0.86523079  0.04953787  0.25503584    -0.04400
C2374       C  0.85977233  0.51921022  0.25801468     0.02700
C2375       C  0.78508393  0.51968215  0.31022867     0.09500
C2376       C  0.80039202  0.08609345  0.30762146     0.35400
C2377       C  0.88340545  0.49598015  0.24615569     0.38800
C2378       C  0.78594011  0.52226596  0.34414529    -0.04700
C2379       C  0.75958640  0.51194991  0.36196715     0.02400
C2380       C  0.73523242  0.49383813  0.34635762    -0.04300
C2381       C  0.73472343  0.49060259  0.31253067    -0.00600
C2382       C  0.75850763  0.50535072  0.29445268    -0.03100
C2383       C  0.81472874  0.53345094  0.36081599     0.36100
C2384       C  0.71035736  0.47136042  0.29624841     0.39700
C2385       C  0.75850998  0.51884860  0.39629625     0.38900
C2386       C  0.75624695  0.50467252  0.25965984     0.35800
C2387       C  0.82377652  0.47514863  0.27221458     0.36500
C2388       C  0.85614510  0.10542723  0.27680315     0.39700
N2389       N  0.75776854  0.52496603  0.42360531    -0.38300
N2390       N  0.83774408  0.54217183  0.37403645    -0.39900
N2391       N  0.69140924  0.45553897  0.28310744    -0.37700
N2392       N  0.75450410  0.50365866  0.23189084    -0.40000
N2393       N  0.78656614  0.10519400  0.32306833    -0.39800
N2394       N  0.86330001  0.13188533  0.28169878    -0.37500
N2395       N  0.90356855  0.47829171  0.23789134    -0.38500
N2396       N  0.81563517  0.44870141  0.27040561    -0.40200
C2397       C  0.89527882  0.24990288  0.27757187    -0.05100
C2398       C  0.91058905  0.23587846  0.25041316     0.09000
C2399       C  0.90913847  0.25195530  0.22087989    -0.02500
C2400       C  0.88801733  0.27830282  0.21820018    -0.00700
C2401       C  0.86300309  0.28070854  0.24044129    -0.04400
C2402       C  0.87045712  0.27267265  0.27244802     0.02700
C2403       C  0.91463078  0.20035338  0.24787490     0.09500
C2404       C  0.91994834  0.23456386  0.19229274     0.35400
C2405       C  0.85021933  0.28398469  0.29873355     0.38800
C2406       C  0.88760134  0.18315269  0.23705449    -0.04700
C2407       C  0.89138538  0.15388251  0.22005610     0.02400
C2408       C  0.92193917  0.13886248  0.21798439    -0.04300
C2409       C  0.94913665  0.15773436  0.22560892    -0.00600
C2410       C  0.94534942  0.18717454  0.24279474    -0.03100
C2411       C  0.85561868  0.19546913  0.24399939     0.36100
C2412       C  0.97986641  0.14806745  0.21228883     0.39700
C2413       C  0.86347807  0.14063598  0.20403072     0.38900
C2414       C  0.97210727  0.20365470  0.25726730     0.35800
C2415       C  0.90098348  0.23683791  0.30898644     0.36500
C2416       C  0.88421193  0.29609619  0.18922452     0.39700
N2417       N  0.83985228  0.13269371  0.19171546    -0.38300
N2418       N  0.83010682  0.20467679  0.25062756    -0.39900
N2419       N  0.00338930  0.13969682  0.19960299    -0.37700
N2420       N  0.99182611  0.21771876  0.27101755    -0.40000
N2421       N  0.92780722  0.21702914  0.17166204    -0.39800
N2422       N  0.87786435  0.31167385  0.16751496    -0.37500
N2423       N  0.83405675  0.29292049  0.31980837    -0.38500
N2424       N  0.90576595  0.22641286  0.33408032    -0.40200
C2425       C  0.96017795  0.08110333  0.34213992    -0.05100
C2426       C  0.97270597  0.11210002  0.33720066     0.09000
C2427       C  0.99239110  0.11617167  0.30971305    -0.02500
C2428       C  0.99507841  0.09108851  0.28655769    -0.00700
C2429       C  0.97170328  0.06712240  0.28605452    -0.04400
C2430       C  0.95863350  0.05877981  0.31604346     0.02700
C2431       C  0.96587313  0.13934785  0.36090560     0.09500
C2432       C  0.00949230  0.14560272  0.30434963     0.35400
C2433       C  0.94201804  0.02858068  0.31943606     0.38800
C2434       C  0.99147012  0.15663415  0.37510866    -0.04700
C2435       C  0.48536535  0.18364901  0.39698899     0.02400
C2436       C  0.95558751  0.18168350  0.41369645    -0.04300
C2437       C  0.92884749  0.16939649  0.39686003    -0.00600
C2438       C  0.93387337  0.14777488  0.37040468    -0.03100
C2439       C  0.52425859  0.14535493  0.37287080     0.36100
C2440       C  0.89676930  0.17678956  0.40863845     0.39700
C2441       C  0.51179024  0.20277044  0.40950771     0.38900
C2442       C  0.90647604  0.13157829  0.35608757     0.35800
C2443       C  0.94860797  0.07248350  0.37357355     0.36500
C2444       C  0.01756203  0.09261809  0.26012694     0.39700
N2445       N  0.53362759  0.21733124  0.41889069    -0.38300
N2446       N  0.54965235  0.13414551  0.37018776    -0.39900
N2447       N  0.86758564  0.17940582  0.91794918    -0.37700
N2448       N  0.88438876  0.11787362  0.34600800    -0.40000
N2449       N  0.02470881  0.16822399  0.30025286    -0.39800
N2450       N  0.03609747  0.09376662  0.23954548    -0.37500
N2451       N  0.92879792  0.00447210  0.32228836    -0.38500
N2452       N  0.93958544  0.06556264  0.39867791    -0.40200
C2453       C  0.84739705  0.39473206  0.46924740    -0.05100
C2454       C  0.85953559  0.38995015  0.43788624     0.09000
C2455       C  0.85844139  0.35835087  0.42364213    -0.02500
C2456       C  0.85104848  0.33179214  0.44236496    -0.00700
C2457       C  0.84507084  0.33619570  0.47531418    -0.04400
C2458       C  0.83834419  0.36814667  0.48716127     0.02700
C2459       C  0.87050537  0.41761728  0.41850067     0.09500
C2460       C  0.86400042  0.35259645  0.38956404     0.35400
C2461       C  0.82285334  0.37449321  0.51800519     0.38800
C2462       C  0.89926568  0.41347112  0.40074052    -0.04700
C2463       C  0.89846942  0.41817176  0.36727428     0.02400
C2464       C  0.86832879  0.42464947  0.35273804    -0.04300
C2465       C  0.84309150  0.43726577  0.37200320    -0.00600
C2466       C  0.84635917  0.43717844  0.40528423    -0.03100
C2467       C  0.92677459  0.39774540  0.41525191     0.36100
C2468       C  0.81170411  0.44355452  0.35833885     0.39700
C2469       C  0.92666932  0.41089408  0.34787577     0.38900
C2470       C  0.82562545  0.45735760  0.42514710     0.35800
C2471       C  0.84578597  0.42656758  0.48431468     0.36500
C2472       C  0.84823886  0.30003910  0.42748584     0.39700
N2473       N  0.94923847  0.40526010  0.33240682    -0.38300
N2474       N  0.94868015  0.38478811  0.42653751    -0.39900
N2475       N  0.78650607  0.44551988  0.34670315    -0.37700
N2476       N  0.81015813  0.47500633  0.44072913    -0.40000
N2477       N  0.86832507  0.34687450  0.36255253    -0.39800
N2478       N  0.84515766  0.27502163  0.41505376    -0.37500
N2479       N  0.81058002  0.38031211  0.54242930    -0.36500
N2480       N  0.84467058  0.45157866  0.49720204    -0.40200
C2481       C  0.55970326  0.28964965  0.47103733    -0.05100
C2482       C  0.53865231  0.26861019  0.48619231     0.09000
C2483       C  0.54945223  0.23735350  0.49370626    -0.02500
C2484       C  0.57930103  0.22612555  0.48250284    -0.00700
C2485       C  0.59691330  0.24449103  0.46067047    -0.04400
C2486       C  0.58879639  0.27759654  0.45782301     0.02700
C2487       C  0.50418814  0.27722638  0.49146667     0.09500
C2488       C  0.52901200  0.21546526  0.51079056     0.35400
C2489       C  0.60930280  0.29927067  0.44070726     0.38800
C2490       C  0.48264138  0.27694368  0.46502688    -0.04700
C2491       C  0.94706932  0.27020563  0.46979457     0.02400
C2492       C  0.93578262  0.26832749  0.50173953    -0.04300
C2493       C  0.45994014  0.26659017  0.52653699    -0.00600
C2494       C  0.49186075  0.27545212  0.52261714    -0.03100
C2495       C  0.99158396  0.27800844  0.43137279     0.36100
C2496       C  0.45372469  0.24394741  0.55113436     0.39700
C2497       C  0.92588554  0.26399227  0.44278451     0.38900
C2498       C  0.51260215  0.27861800  0.55063447     0.35800
C2499       C  0.55070509  0.32319229  0.46784678     0.36500
C2500       C  0.59042141  0.19454014  0.49165684     0.39700
N2501       N  0.91064741  0.25779588  0.42019204    -0.38300
N2502       N  0.00042044  0.28153943  0.40537943    -0.39900
N2503       N  0.45001266  0.21891570  0.07034473    -0.37700
N2504       N  0.52825020  0.28122091  0.57359157    -0.40000
N2505       N  0.51312841  0.19795253  0.52469319    -0.39800
N2506       N  0.59900778  0.16900362  0.49805167    -0.37500
N2507       N  0.62556092  0.31678486  0.42720305    -0.38500
N2508       N  0.54371073  0.35001142  0.46526392    -0.40200
C2509       C  0.45313991  0.43505506  0.07126915    -0.05100
C2510       C  0.41924380  0.43754752  0.07038582     0.09000
C2511       C  0.90426141  0.47397517  0.06473371    -0.02500
C2512       C  0.42410707  0.49531081  0.06274026    -0.00700
C2513       C  0.45741579  0.49097641  0.05705831    -0.04400
C2514       C  0.47092760  0.45970567  0.05862423     0.02700
C2515       C  0.90155104  0.41295075  0.05989669     0.09500
C2516       C  0.86962229  0.47747869  0.06323337     0.35400
C2517       C  0.50364178  0.45257546  0.04822889     0.38800
C2518       C  0.88287530  0.39743007  0.08287006    -0.04700
C2519       C  0.87648541  0.36424343  0.07883654     0.02400
C2520       C  0.89146777  0.34617500  0.05369393    -0.04300
C2521       C  0.90949043  0.36254132  0.03030826    -0.00600
C2522       C  0.91167283  0.39590207  0.03193894    -0.03100
C2523       C  0.87051469  0.41527802  0.11054767     0.36100
C2524       C  0.92258481  0.35307415  0.50698048     0.39700
C2525       C  0.85339375  0.34905858  0.09936673     0.38900
C2526       C  0.43207495  0.40591256  0.01050052     0.35800
C2527       C  0.46939700  0.40455366  0.07721158     0.36500
C2528       C  0.91098455  0.53334699  0.06725859     0.39700
N2529       N  0.83435270  0.33704171  0.11517583    -0.38300
N2530       N  0.86085598  0.42888682  0.13319198    -0.39900
N2531       N  0.93810527  0.34227434  0.48624859    -0.37700
N2532       N  0.44654585  0.41867347  0.99094397    -0.40000
N2533       N  0.84199480  0.48056669  0.06099490    -0.39800
N2534       N  0.89672628  0.05571940  0.05785821    -0.37500
N2535       N  0.52950003  0.44629202  0.03983599    -0.38500
N2536       N  0.48309713  0.38043085  0.08014792    -0.40200
C2537       C  0.56449041  0.26380186  0.28768429    -0.05100
C2538       C  0.56212822  0.26474851  0.25389064     0.09000
C2539       C  0.59030237  0.26678831  0.23546389    -0.02500
C2540       C  0.62056729  0.26633637  0.25024477    -0.00700
C2541       C  0.62338118  0.25958891  0.28360316    -0.04400
C2542       C  0.59504347  0.26164491  0.30250379     0.02700
C2543       C  0.53064735  0.26532063  0.23660405     0.09500
C2544       C  0.58845665  0.26542077  0.20059113     0.35400
C2545       C  0.59657783  0.26174766  0.33719184     0.38800
C2546       C  0.51095829  0.29289054  0.23860486    -0.04700
C2547       C  0.98663986  0.29789344  0.21403533     0.02400
C2548       C  0.98590068  0.27769983  0.18590803    -0.04300
C2549       C  0.00289910  0.24819956  0.18583773    -0.00600
C2550       C  0.02310288  0.24126090  0.21206305    -0.03100
C2551       C  0.51652366  0.31763259  0.26324330     0.36100
C2552       C  0.00153923  0.22609900  0.15829262     0.39700
C2553       C  0.96284868  0.32320263  0.21915590     0.38900
C2554       C  0.53919008  0.20985543  0.21571244     0.35800
C2555       C  0.53569214  0.26350712  0.30736391     0.36500
C2556       C  0.64833745  0.26887267  0.22940747     0.39700
N2557       N  0.94344098  0.34305364  0.22329337    -0.38300
N2558       N  0.52112602  0.33707075  0.28308076    -0.39900
N2559       N  0.00063271  0.20849351  0.13632706    -0.37700
N2560       N  0.55103584  0.18494153  0.21948081    -0.40000
N2561       N  0.58697670  0.26215054  0.17296170    -0.39800
N2562       N  0.67032243  0.26924223  0.21250516    -0.37500
N2563       N  0.59533265  0.26247158  0.36496006    -0.38500
N2564       N  0.01227000  0.26429441  0.32246861    -0.40200
C2565       C  0.62475079  0.11856009  0.31506862    -0.05100
C2566       C  0.65142816  0.10011736  0.30383925     0.09000
C2567       C  0.68274597  0.10976923  0.31224260    -0.02500
C2568       C  0.68671137  0.13788033  0.33103376    -0.00700
C2569       C  0.66140245  0.16067493  0.33143941    -0.04400
C2570       C  0.62967983  0.14957911  0.32808988     0.02700
C2571       C  0.64601940  0.06774778  0.28926520     0.09500
C2572       C  0.71012534  0.09123974  0.30053237     0.35400
C2573       C  0.60269527  0.17085706  0.33537097     0.38800
C2574       C  0.62820049  0.06438096  0.26043743    -0.04700
C2575       C  0.60856505  0.03729667  0.25614597     0.02400
C2576       C  0.60736169  0.01523802  0.28111744    -0.04300
C2577       C  0.63390257  0.01276413  0.30171114    -0.00600
C2578       C  0.65108531  0.04088512  0.30867929    -0.03100
C2579       C  0.62602542  0.09068271  0.23845251     0.36100
C2580       C  0.63611017  0.98481689  0.32143716     0.39700
C2581       C  0.08574501  0.03501645  0.22996091     0.38900
C2582       C  0.66788511  0.04536929  0.33893663     0.35800
C2583       C  0.59273374  0.10539202  0.31348672     0.36500
C2584       C  0.71783482  0.14672168  0.34414035     0.39700
N2585       N  0.06710907  0.03358787  0.20922091    -0.38300
N2586       N  0.62406037  0.11170692  0.22090558    -0.39900
N2587       N  0.63616069  0.96149388  0.33587536    -0.37700
N2588       N  0.68120375  0.05283166  0.36238511    -0.40000
N2589       N  0.73088963  0.07558015  0.28994554    -0.39800
N2590       N  0.74232313  0.15412773  0.35524988    -0.37500
N2591       N  0.58160365  0.18846410  0.34115308    -0.38500
N2592       N  0.56756593  0.09389028  0.31266737    -0.40200
C2593       C  0.65143571  0.18646233  0.19354937    -0.05100
C2594       C  0.67763523  0.18019958  0.17308449     0.09000
C2595       C  0.70872968  0.17534891  0.18612853    -0.02500
C2596       C  0.71451237  0.18378884  0.21865685    -0.00700
C2597       C  0.68874012  0.19477716  0.23782744    -0.04400
C2598       C  0.65685112  0.19037270  0.22631036     0.02700
C2599       C  0.67279890  0.18447524  0.13830061     0.09500
C2600       C  0.73431513  0.16214624  0.16608774     0.35400
C2601       C  0.62953749  0.18809902  0.24760394     0.38800
C2602       C  0.68506718  0.21239267  0.12431510    -0.04700
C2603       C  0.67865432  0.21815750  0.09181695     0.02400
C2604       C  0.66166026  0.19497065  0.07370329    -0.04300
C2605       C  0.64134341  0.17428943  0.09025168    -0.00600
C2606       C  0.65039591  0.16536694  0.12109187    -0.03100
C2607       C  0.70500520  0.23391122  0.14336318     0.36100
C2608       C  0.61328533  0.16020684  0.07489339     0.39700
C2609       C  0.69396114  0.24396994  0.07523748     0.38900
C2610       C  0.63581377  0.13768127  0.13544718     0.35800
C2611       C  0.61914242  0.19041757  0.18060495     0.36500
C2612       C  0.74586465  0.17922051  0.23290168     0.39700
N2613       N  0.70604786  0.26403831  0.06105168    -0.38300
N2614       N  0.72089166  0.24964263  0.16020954    -0.39900
N2615       N  0.59032633  0.14891326  0.06373056    -0.37700
N2616       N  0.62362444  0.11622758  0.14741242    -0.40000
N2617       N  0.75460632  0.15087992  0.15032295    -0.39800
N2618       N  0.77062375  0.17464574  0.24480899    -0.37500
N2619       N  0.60701924  0.18536951  0.26351865    -0.38500
N2620       N  0.59417864  0.19257511  0.16840379    -0.40200
C2621       C  0.73184547  0.15500984  0.53614392     0.80600
N2622       N  0.71663961  0.13151476  0.51726316    -0.77700
C2623       C  0.68320393  0.13286659  0.51419297     0.83000
N2624       N  0.66667798  0.15676513  0.52926179    -0.77700
C2625       C  0.68105072  0.17908963  0.54783898     0.83100
N2626       N  0.71342896  0.17778643  0.55128356    -0.79400
C2627       C  0.54476279  0.02223763  0.84278854     0.80600
N2628       N  0.57372492  0.02113651  0.82798923    -0.77700
C2629       C  0.57720088  0.01083810  0.79697434     0.83000
N2630       N  0.55121942  0.00244110  0.77975700    -0.77700
C2631       C  0.02105428  0.00406921  0.79324022     0.83100
N2632       N  0.51781754  0.01226895  0.82509922    -0.79400
C2633       C  0.94778206  0.33648125  0.63434371     0.80600
N2634       N  0.92464351  0.31737626  0.61899248    -0.77700
C2635       C  0.92584564  0.28398684  0.62207557     0.83000
N2636       N  0.94827797  0.27139368  0.64226927    -0.77700
C2637       C  0.96921628  0.29030445  0.65873002     0.83100
N2638       N  0.96963242  0.32185792  0.65319954    -0.79400
C2639       C  0.64843459  0.24107739  0.79626917     0.80600
N2640       N  0.64405708  0.21612580  0.81630520    -0.77700
C2641       C  0.66558657  0.19103418  0.81620661     0.83000
N2642       N  0.68790871  0.18868695  0.79269927    -0.77700
C2643       C  0.68972108  0.21087483  0.77038830     0.83100
N2644       N  0.67348450  0.23881616  0.77548877    -0.79400
O2645       O  0.76008960  0.31650473  0.88714166    -0.78100
C2646       C  0.79046547  0.36050367  0.79272022     0.82900
O2647       O  0.66902863  0.37062203  0.87206920    -0.79200
O2648       O  0.67591613  0.35022466  0.76846603    -0.80700
O2649       O  0.75308421  0.25551030  0.78957676    -0.80500
O2650       O  0.76160953  0.26403411  0.87909445    -0.79100
Zn2651     Zn  0.74562163  0.34158185  0.84974610     1.55700
O2652       O  0.72742724  0.28636931  0.75398233    -0.80500
Cd2653     Cd  0.73182419  0.26886613  0.83576482     1.59700
Cd2654     Cd  0.67095542  0.32546257  0.84429432     1.59600
O2655       O  0.69381070  0.24183778  0.85440407    -0.80500
O2656       O  0.71641914  0.31540109  0.82714911    -1.91000
Cd2657     Cd  0.72221786  0.32932119  0.78102706     1.59900
O2658       O  0.66035566  0.28207748  0.87028604    -0.80500
O2659       O  0.76855703  0.35493810  0.77125555    -0.79100
C2660       C  0.69246689  0.39040298  0.87406416     0.83400
C2661       C  0.76568927  0.28850532  0.89784201     0.83000
O2662       O  0.78387143  0.35464672  0.82205764    -0.78100
C2663       C  0.74843284  0.26486777  0.76041639     0.83900
O2664       O  0.72089304  0.38122550  0.86582639    -0.78200
C2665       C  0.66984889  0.25224384  0.87119085     0.84000
C2666       C  0.64610237  0.34837014  0.77743991     0.84300
O2667       O  0.63886482  0.33645359  0.80467410    -0.80600
C2668       C  0.52044987  0.00749084  0.60182821     0.80600
N2669       N  0.49044021  0.51690357  0.59400485    -0.77700
C2670       C  0.48224847  0.52150455  0.56315876     0.83000
N2671       N  0.50594644  0.52506284  0.54131376    -0.77700
C2672       C  0.53724442  0.01848362  0.54816641     0.83100
N2673       N  0.54470494  0.00797049  0.57888231    -0.79400
C2674       C  0.62988970  0.17985752  0.90960606     0.80600
N2675       N  0.61180956  0.19710660  0.93090083    -0.77700
C2676       C  0.61425553  0.22933790  0.93526532     0.83000
N2677       N  0.63420097  0.24550320  0.91623909    -0.77700
C2678       C  0.65205488  0.23012887  0.89320698     0.83100
N2679       N  0.65072790  0.19664406  0.89027819    -0.79400
C2680       C  0.82331907  0.37699977  0.78825035     0.80600
N2681       N  0.83417705  0.38973815  0.81643284    -0.77700
C2682       C  0.86216061  0.40549553  0.81937643     0.83000
N2683       N  0.88120999  0.40775820  0.79391600    -0.77700
C2684       C  0.87284980  0.39561406  0.76479519     0.83100
N2685       N  0.84290148  0.38016616  0.76104256    -0.79400
C2686       C  0.85810578  0.30559058  0.99449894     0.80600
N2687       N  0.88268261  0.28474924  0.98630558    -0.77700
C2688       C  0.90439192  0.27538227  0.00908601     0.83000
N2689       N  0.90296727  0.29765769  0.54090578    -0.77700
C2690       C  0.87880932  0.31853712  0.54860923     0.83100
N2691       N  0.85472720  0.31431117  0.02572866    -0.79400
O2692       O  0.52736903  0.10945656  0.94949232    -0.78100
C2693       C  0.62279658  0.14372394  0.90913852     0.82900
O2694       O  0.54810709  0.01723309  0.90128690    -0.79200
O2695       O  0.65297608  0.03019624  0.91837308    -0.80700
O2696       O  0.63144445  0.11035061  0.50559190    -0.80500
O2697       O  0.54185756  0.11457464  0.50087457    -0.79100
Zn2698     Zn  0.56636455  0.09472902  0.92247512     1.55700
O2699       O  0.67127177  0.09041579  0.47482361    -0.80500
Cd2700     Cd  0.58700272  0.08640872  0.49576855     1.59700
Cd2701     Cd  0.57720616  0.02305139  0.94539872     1.59600
O2702       O  0.58039398  0.04864933  0.52736123    -0.80500
O2703       O  0.59240277  0.06936552  0.95011916    -1.91000
Cd2704     Cd  0.63894948  0.07677599  0.93641793     1.59900
O2705       O  0.55669718  0.51554538  0.49368724    -0.80500
O2706       O  0.64474449  0.12169626  0.91027373    -0.79100
C2707       C  0.54604383  0.03614541  0.87726844     0.83400
C2708       C  0.52124489  0.11909435  0.47824523     0.83000
O2709       O  0.59331798  0.13598752  0.91359297    -0.78100
C2710       C  0.66150528  0.10913597  0.49751649     0.83900
O2711       O  0.55329345  0.06604171  0.88140222    -0.78200
C2712       C  0.56092839  0.02560932  0.52194621     0.84000
C2713       C  0.64677380  0.50000367  0.91979114     0.84300
O2714       O  0.61965364  0.49202626  0.93189629    -0.80600
C2715       C  0.49079790  0.13987627  0.48096378     0.80600
N2716       N  0.46652019  0.14111161  0.50399901    -0.77700
C2717       C  0.43810848  0.15856617  0.49778169     0.83000
N2718       N  0.93139679  0.17098534  0.96940036    -0.77700
C2719       C  0.45250179  0.16390333  0.94587358     0.83100
N2720       N  0.48003134  0.14853100  0.95247669    -0.79400
C2721       C  0.79823673  0.24851466  0.68507623     0.80600
N2722       N  0.82571982  0.26222169  0.69643568    -0.77700
C2723       C  0.82830456  0.27466954  0.72697887     0.83000
N2724       N  0.80282873  0.27300279  0.74658794    -0.77700
C2725       C  0.77482176  0.25982037  0.73673193     0.83100
N2726       N  0.77200483  0.24749498  0.70550433    -0.79400
C2727       C  0.68867136  0.42614537  0.88003573     0.80600
N2728       N  0.66680845  0.44293629  0.89978451    -0.77700
C2729       C  0.66921495  0.47633097  0.90268164     0.83000
N2730       N  0.69231336  0.49107889  0.88592420    -0.77700
C2731       C  0.71185565  0.47500047  0.86547531     0.83100
N2732       N  0.71007270  0.44292578  0.86294224    -0.79400
C2733       C  0.92208603  0.10597495  0.72245535     0.80600
N2734       N  0.89459171  0.08893362  0.72450539    -0.77700
C2735       C  0.89349981  0.06221658  0.74233314     0.83000
N2736       N  0.91993197  0.05263710  0.75865867    -0.77700
C2737       C  0.94768528  0.06903335  0.75712877     0.83100
N2738       N  0.94844703  0.09522727  0.73841828    -0.79400
O2739       O  0.80043562  0.20356770  0.64590747    -0.78100
C2740       C  0.76711192  0.15647960  0.54560825     0.82900
O2741       O  0.88646570  0.13739206  0.61965190    -0.79200
O2742       O  0.88123840  0.16692413  0.51057761    -0.80700
O2743       O  0.80926134  0.26189446  0.54077790    -0.80500
O2744       O  0.80782015  0.25292362  0.62833233    -0.79100
Zn2745     Zn  0.81208064  0.17448704  0.60424622     1.55700
O2746       O  0.81691247  0.22437993  0.00193621    -0.80500
Cd2747     Cd  0.83270568  0.24434376  0.58370323     1.59700
Cd2748     Cd  0.88757568  0.18301041  0.59210567     1.59600
O2749       O  0.87549975  0.26984141  0.59480046    -0.80500
O2750       O  0.84237338  0.19627338  0.57680461    -1.91000
Cd2751     Cd  0.83429240  0.18375574  0.52925551     1.59900
O2752       O  0.90647289  0.22921247  0.61170515    -0.80500
O2753       O  0.79017791  0.15553906  0.52492682    -0.79100
C2754       C  0.86130964  0.12028861  0.62502194     0.83400
C2755       C  0.80011824  0.23419037  0.65103335     0.83000
O2756       O  0.77274479  0.16443653  0.57519978    -0.78100
C2757       C  0.80579356  0.25210972  0.01077423     0.83900
O2758       O  0.83333974  0.13209017  0.61873318    -0.78200
C2759       C  0.90125904  0.25985932  0.60852179     0.84000
C2760       C  0.91039028  0.16386193  0.52171773     0.84300
O2761       O  0.91652663  0.16910098  0.55159395    -0.80600
C2762       C  0.86092944  0.08694737  0.64053772     0.80600
N2763       N  0.88645026  0.06558280  0.64563371    -0.77700
C2764       C  0.88064377  0.03533742  0.65841056     0.83000
N2765       N  0.84968262  0.02781068  0.66627304    -0.77700
C2766       C  0.82501807  0.04926171  0.66262570     0.83100
N2767       N  0.83104244  0.07783515  0.64945627    -0.79400
C2768       C  0.57343722  0.37321635  0.72423685     0.80600
N2769       N  0.59122724  0.36970050  0.75268480    -0.77700
C2770       C  0.62121305  0.35408993  0.75117043     0.83000
N2771       N  0.63159634  0.34265899  0.72251058    -0.77700
C2772       C  0.61479565  0.34537997  0.69519262     0.83100
N2773       N  0.58602273  0.36088362  0.69625381    -0.79400
C2774       C  0.77200507  0.28876741  0.93377626     0.80600
N2775       N  0.76309089  0.31716235  0.94670238    -0.77700
C2776       C  0.76816874  0.32633208  0.97706966     0.83000
N2777       N  0.78147450  0.30478413  0.99743974    -0.77700
C2778       C  0.79031870  0.27448920  0.98643982     0.83100
N2779       N  0.78590978  0.26628398  0.95376902    -0.79400
C2780       C  0.63332175  0.48717397  0.54451319     0.80600
N2781       N  0.62428399  0.45754348  0.55281106    -0.77700
C2782       C  0.61701096  0.45043176  0.58314911     0.83000
N2783       N  0.61402856  0.97006249  0.60331639    -0.77700
C2784       C  0.62163836  0.00068092  0.59558868     0.83100
N2785       N  0.63448859  0.51069847  0.56771317    -0.79400
O2786       O  0.97739668  0.38410860  0.64483321    -0.78100
C2787       C  0.51940002  0.98876984  0.63243975     0.82900
O2788       O  0.01907455  0.39506840  0.74161506    -0.79200
O2789       O  0.99394944  0.00483805  0.74242288    -0.80700
O2790       O  0.90079766  0.97962968  0.66105156    -0.80500
O2791       O  0.92410920  0.39052104  0.64521734    -0.79100
Zn2792     Zn  0.00025784  0.42382899  0.66534259     1.55700
O2793       O  0.93297995  0.01883333  0.68020856    -0.80500
Cd2794     Cd  0.92182183  0.43389204  0.67663732     1.59700
Cd2795     Cd  0.97447627  0.42471101  0.73922904     1.59600
O2796       O  0.89103763  0.41458392  0.71279200    -0.80500
O2797       O  0.96786813  0.44369587  0.69433457    -1.91000
Cd2798     Cd  0.97570126  0.99270458  0.69487095     1.59900
O2799       O  0.92783711  0.40459134  0.75093366    -0.80500
O2800       O  0.00920607  0.00487048  0.65801776    -0.79100
C2801       C  0.04195426  0.39290741  0.72072382     0.83400
C2802       C  0.94913777  0.37288028  0.63917092     0.83000
O2803       O  0.01683845  0.45694958  0.63087319    -0.78100
C2804       C  0.90677225  0.01006866  0.66598815     0.83900
O2805       O  0.03766164  0.40475699  0.69275448    -0.78200
C2806       C  0.89836754  0.40343686  0.74028577     0.84000
C2807       C  0.99637523  0.99111149  0.76985980     0.84300
O2808       O  0.98617956  0.96251907  0.77355891    -0.80600
C2809       C  0.72596080  0.39912908  0.01527445    -0.05100
C2810       C  0.72507597  0.41943514  0.98887922     0.09000
C2811       C  0.74541033  0.41303213  0.96294028    -0.02500
C2812       C  0.76278522  0.38396030  0.96085572    -0.00700
C2813       C  0.75921795  0.36045018  0.98500305    -0.04400
C2814       C  0.74212155  0.36917287  0.01313758     0.02700
C2815       C  0.70006695  0.44536285  0.98758966     0.09500
C2816       C  0.74847478  0.43651309  0.93843812     0.35400
C2817       C  0.73940090  0.34681028  0.03874907     0.38800
C2818       C  0.71048681  0.47669039  0.50828872    -0.04700
C2819       C  0.68547647  0.49790637  0.51825129     0.02400
C2820       C  0.65307441  0.48801242  0.51485247    -0.04300
C2821       C  0.64629763  0.46331963  0.49179167    -0.00600
C2822       C  0.66818331  0.43714445  0.97928349    -0.03100
C2823       C  0.74388211  0.48408364  0.51515909     0.36100
C2824       C  0.61305563  0.45576934  0.48401798     0.39700
C2825       C  0.69335196  0.52775486  0.53499400     0.38900
C2826       C  0.66127842  0.40557309  0.96527635     0.35800
C2827       C  0.71661115  0.41121925  0.55016294     0.36500
C2828       C  0.78219670  0.37792591  0.93232354     0.39700
N2829       N  0.70068528  0.55153617  0.54798473    -0.38300
N2830       N  0.77064195  0.48979529  0.52044853    -0.39900
N2831       N  0.58664471  0.44970950  0.47746351    -0.37700
N2832       N  0.65575442  0.38029545  0.95451348    -0.40000
N2833       N  0.75200698  0.45543365  0.91912742    -0.39800
N2834       N  0.79653629  0.37390902  0.90874448    -0.37500
N2835       N  0.73742613  0.32861531  0.05904878    -0.38500
N2836       N  0.70897798  0.42367003  0.57404802    -0.40200
C2837       C  0.62419879  0.31015010  0.61024029    -0.05100
C2838       C  0.65551498  0.32086409  0.60479183     0.09000
C2839       C  0.67532649  0.31573011  0.63144737    -0.02500
C2840       C  0.66283977  0.32564668  0.66178395    -0.00700
C2841       C  0.62875498  0.33158090  0.66478577    -0.04400
C2842       C  0.60886662  0.32208448  0.63821190     0.02700
C2843       C  0.65480008  0.35492100  0.59255780     0.09500
C2844       C  0.70948889  0.31027834  0.62676953     0.35400
C2845       C  0.57409625  0.32515786  0.63856613     0.38800
C2846       C  0.66659267  0.38101585  0.61182584    -0.04700
C2847       C  0.65024573  0.41075751  0.61279693     0.02400
C2848       C  0.62441366  0.41666179  0.59136404    -0.04300
C2849       C  0.61552315  0.39183227  0.56914832    -0.00600
C2850       C  0.63241340  0.36228701  0.56816814    -0.03100
C2851       C  0.69814704  0.37968250  0.62714410     0.36100
C2852       C  0.58899511  0.39651465  0.54697961     0.39700
C2853       C  0.65586207  0.92999282  0.63554644     0.38900
C2854       C  0.62780075  0.33970403  0.54142565     0.35800
C2855       C  0.60887124  0.28829970  0.58751886     0.36500
C2856       C  0.68579558  0.33456226  0.68682197     0.39700
N2857       N  0.66679351  0.94658952  0.65534529    -0.38300
N2858       N  0.72329930  0.38040708  0.63924653    -0.39900
N2859       N  0.56770863  0.39936770  0.52925616    -0.37700
N2860       N  0.62453758  0.32195981  0.51975601    -0.40000
N2861       N  0.73704567  0.30647265  0.62432211    -0.39800
N2862       N  0.70480936  0.34199965  0.70592931    -0.37500
N2863       N  0.54630442  0.32764858  0.63873751    -0.38500
N2864       N  0.59753603  0.27027042  0.56919254    -0.40200
C2865       C  0.67753589  0.05944687  0.62923025    -0.05100
C2866       C  0.68729003  0.04170473  0.65604138     0.09000
C2867       C  0.66478386  0.02155659  0.67054921    -0.02500
C2868       C  0.63634617  0.01311710  0.65364113    -0.00700
C2869       C  0.63192983  0.02384839  0.62192246    -0.04400
C2870       C  0.64853171  0.05162771  0.61343147     0.02700
C2871       C  0.72232855  0.03935902  0.66416978     0.09500
C2872       C  0.67226744  0.00725641  0.70106610     0.35400
C2873       C  0.63634462  0.07090867  0.58770632     0.38800
C2874       C  0.73684128  0.06168903  0.68538967    -0.04700
C2875       C  0.77080469  0.06287696  0.68776540     0.02400
C2876       C  0.79056275  0.04135804  0.66918769    -0.04300
C2877       C  0.77550254  0.01642388  0.65124383    -0.00600
C2878       C  0.74167009  0.01604185  0.64795702    -0.03100
C2879       C  0.71671006  0.08400258  0.70397595     0.36100
C2880       C  0.79454919  0.99173851  0.63497170     0.39700
C2881       C  0.78479337  0.08607467  0.70997148     0.38900
C2882       C  0.72683094  0.99307692  0.62580891     0.35800
C2883       C  0.69864135  0.08317781  0.61598710     0.36500
C2884       C  0.61368731  0.99102645  0.66730928     0.39700
N2885       N  0.79384048  0.10497846  0.72866450    -0.38300
N2886       N  0.70056770  0.10167156  0.71882107    -0.39900
N2887       N  0.80892736  0.97121711  0.62217687    -0.37700
N2888       N  0.71503952  0.97516760  0.60772591    -0.40000
N2889       N  0.67790612  0.99559807  0.72537121    -0.39800
N2890       N  0.59601794  0.97278432  0.67786839    -0.37500
N2891       N  0.63318655  0.58868427  0.56788953    -0.38500
N2892       N  0.71543790  0.10193724  0.60499595    -0.40200
C2893       C  0.83117662  0.50814067  0.77099775    -0.05100
C2894       C  0.81156458  0.52960358  0.78933070     0.09000
C2895       C  0.81640539  0.06481620  0.78946186    -0.02500
C2896       C  0.84340595  0.07475797  0.77254974    -0.00700
C2897       C  0.86247136  0.05213378  0.75502701    -0.04400
C2898       C  0.85832152  0.51954225  0.75504827     0.02700
C2899       C  0.78462462  0.51725669  0.80873586     0.09500
C2900       C  0.79752484  0.08869823  0.80738219     0.35400
C2901       C  0.88173960  0.49676865  0.74200117     0.38800
C2902       C  0.78546477  0.52066507  0.84262132    -0.04700
C2903       C  0.75893178  0.51128715  0.86065437     0.02400
C2904       C  0.73498688  0.49213653  0.84579356    -0.04300
C2905       C  0.73483375  0.48729869  0.81203893    -0.00600
C2906       C  0.75827174  0.50202160  0.79343502    -0.03100
C2907       C  0.81432066  0.53185866  0.85909334     0.36100
C2908       C  0.71113408  0.46673258  0.79642815     0.39700
C2909       C  0.75703867  0.52072095  0.89444798     0.38900
C2910       C  0.75587512  0.50058645  0.75861279     0.35800
C2911       C  0.82382698  0.47419434  0.76922468     0.36500
C2912       C  0.85290965  0.10805288  0.77620487     0.39700
N2913       N  0.75549446  0.52885539  0.92121684    -0.38300
N2914       N  0.83741552  0.54059256  0.87219014    -0.39900
N2915       N  0.69271930  0.44981105  0.78386101    -0.37700
N2916       N  0.75441398  0.49913491  0.73085241    -0.40000
N2917       N  0.78351020  0.10815670  0.82216980    -0.39800
N2918       N  0.85962364  0.13468840  0.78055014    -0.37500
N2919       N  0.90127776  0.47871559  0.73301718    -0.38500
N2920       N  0.81667716  0.44745352  0.76718890    -0.40200
C2921       C  0.89233130  0.25183257  0.77786382    -0.05100
C2922       C  0.90787620  0.23806705  0.75078153     0.09000
C2923       C  0.90680622  0.25437955  0.72142455    -0.02500
C2924       C  0.88592562  0.28086684  0.71876549    -0.00700
C2925       C  0.86054052  0.28309719  0.74066715    -0.04400
C2926       C  0.86755621  0.27462777  0.77269882     0.02700
C2927       C  0.91192992  0.20260546  0.74807260     0.09500
C2928       C  0.91764728  0.23705562  0.69282610     0.35400
C2929       C  0.84656313  0.28483573  0.79882420     0.38800
C2930       C  0.88498973  0.18545284  0.73705300    -0.04700
C2931       C  0.88895236  0.15645856  0.71959869     0.02400
C2932       C  0.91959124  0.14142128  0.71771512    -0.04300
C2933       C  0.94671880  0.16027503  0.72583771    -0.00600
C2934       C  0.94270545  0.18954244  0.74320347    -0.03100
C2935       C  0.85292901  0.19710464  0.74509619     0.36100
C2936       C  0.97803722  0.15042880  0.71394404     0.39700
C2937       C  0.86117367  0.14345188  0.70319333     0.38900
C2938       C  0.96917409  0.20550498  0.75880890     0.35800
C2939       C  0.89751973  0.23807980  0.80904715     0.36500
C2940       C  0.88317956  0.29899267  0.68990020     0.39700
N2941       N  0.83761972  0.13577035  0.69049744    -0.38300
N2942       N  0.82752573  0.20561216  0.75296494    -0.39900
N2943       N  0.00237130  0.14224269  0.70286864    -0.37700
N2944       N  0.98863721  0.21893322  0.77357930    -0.40000
N2945       N  0.92543346  0.21933674  0.67235178    -0.39800
N2946       N  0.87875733  0.31470565  0.66786691    -0.37500
N2947       N  0.82982775  0.29263042  0.81984860    -0.38500
N2948       N  0.90199764  0.22687159  0.83383100    -0.40200
C2949       C  0.95821750  0.08383362  0.84121649    -0.05100
C2950       C  0.97096307  0.11468123  0.83580755     0.09000
C2951       C  0.99121553  0.11794363  0.80858233    -0.02500
C2952       C  0.99357026  0.09245799  0.78575783    -0.00700
C2953       C  0.96977585  0.06889565  0.78542675    -0.04400
C2954       C  0.95681440  0.06101770  0.81553471     0.02700
C2955       C  0.96360618  0.14230408  0.85898569     0.09500
C2956       C  0.00924395  0.14678152  0.80306594     0.35400
C2957       C  0.94012659  0.03094245  0.81930322     0.38800
C2958       C  0.98879334  0.15932604  0.87427577    -0.04700
C2959       C  0.47766986  0.17645018  0.89540598     0.02400
C2960       C  0.95215928  0.18124801  0.91393878    -0.04300
C2961       C  0.92573848  0.16957154  0.89619763    -0.00600
C2962       C  0.93137796  0.14993016  0.86841431    -0.03100
C2963       C  0.51908972  0.14237170  0.86992184     0.36100
C2964       C  0.89343092  0.17490595  0.90841131     0.39700
C2965       C  0.50328843  0.19527535  0.91016999     0.38900
C2966       C  0.90439713  0.13391441  0.85315133     0.35800
C2967       C  0.94603437  0.07601421  0.87263805     0.36500
C2968       C  0.01651221  0.09285171  0.75969548     0.39700
N2969       N  0.52474948  0.20881678  0.92182349    -0.38300
N2970       N  0.54547905  0.13351040  0.86859470    -0.39900
N2971       N  0.87120029  0.18310760  0.41797830    -0.37700
N2972       N  0.88260384  0.12009819  0.84260672    -0.40000
N2973       N  0.02515541  0.16878357  0.79837262    -0.39800
N2974       N  0.03533271  0.09302771  0.73930629    -0.37500
N2975       N  0.92675900  0.00696342  0.82241567    -0.38500
N2976       N  0.93636993  0.07001003  0.89778550    -0.40200
C2977       C  0.85629489  0.38938238  0.96658264    -0.05100
C2978       C  0.86797000  0.38429925  0.93518858     0.09000
C2979       C  0.86549454  0.35287937  0.92055928    -0.02500
C2980       C  0.85585902  0.32669595  0.93882236    -0.00700
C2981       C  0.84898032  0.33132891  0.97157637    -0.04400
C2982       C  0.84423532  0.36354848  0.98356704     0.02700
C2983       C  0.87821529  0.41225608  0.91601712     0.09500
C2984       C  0.87224612  0.34679218  0.88672124     0.35400
C2985       C  0.82757560  0.37092627  0.01358662     0.38800
C2986       C  0.90598220  0.40828327  0.89690357    -0.04700
C2987       C  0.90300729  0.41209439  0.86346327     0.02400
C2988       C  0.87198007  0.41881245  0.85081279    -0.04300
C2989       C  0.84810104  0.43204701  0.87129112    -0.00600
C2990       C  0.85332471  0.43198757  0.90429808    -0.03100
C2991       C  0.93454182  0.39340392  0.91031523     0.36100
C2992       C  0.81647769  0.44041881  0.85920065     0.39700
C2993       C  0.92976991  0.40344877  0.84255141     0.38900
C2994       C  0.83251301  0.45080849  0.92543395     0.35800
C2995       C  0.85794294  0.42086305  0.98234550     0.36500
C2996       C  0.85156949  0.29518988  0.92373657     0.39700
N2997       N  0.95120389  0.39651192  0.82596329    -0.38300
N2998       N  0.95732262  0.38120349  0.92076257    -0.39900
N2999       N  0.79080775  0.44497480  0.84936809    -0.37700
N3000       N  0.81667854  0.46720561  0.94197617    -0.40000
N3001       N  0.87760522  0.34077411  0.85995175    -0.39800
N3002       N  0.84742984  0.27030172  0.91133002    -0.37500
N3003       N  0.81431872  0.37761035  0.03728164    -0.36500
N3004       N  0.85942563  0.44585951  0.99515781    -0.40200
C3005       C  0.54868721  0.28681539  0.96421992    -0.05100
C3006       C  0.53049828  0.26437211  0.98091907     0.09000
C3007       C  0.54548120  0.23580895  0.99144808    -0.02500
C3008       C  0.57671515  0.22809839  0.98145328    -0.00700
C3009       C  0.59145705  0.24632264  0.95766907    -0.04400
C3010       C  0.57915883  0.27763422  0.95191238     0.02700
C3011       C  0.49527275  0.26874212  0.98559708     0.09500
C3012       C  0.52820560  0.21271383  0.01030874     0.35400
C3013       C  0.59682321  0.30011934  0.93291897     0.38800
C3014       C  0.47386413  0.26412501  0.95931334    -0.04700
C3015       C  0.94864091  0.26419581  0.96883833     0.02400
C3016       C  0.93589374  0.26018105  0.99992600    -0.04300
C3017       C  0.45267934  0.25579188  0.02166342    -0.00600
C3018       C  0.48335689  0.26772428  0.01691328    -0.03100
C3019       C  0.99417214  0.27694517  0.93341120     0.36100
C3020       C  0.44852125  0.23604736  0.04903125     0.39700
C3021       C  0.92879702  0.25976043  0.94046898     0.38900
C3022       C  0.50338617  0.27622203  0.04447897     0.35800
C3023       C  0.53548599  0.31866771  0.95896126     0.36500
C3024       C  0.59260812  0.19981588  0.99364116     0.39700
N3025       N  0.91464819  0.25542882  0.91678878    -0.38300
N3026       N  0.00385239  0.28260513  0.90816179    -0.39900
N3027       N  0.45273768  0.22375219  0.56955074    -0.37700
N3028       N  0.51862702  0.28326605  0.06686441    -0.40000
N3029       N  0.51488773  0.19425431  0.02555661    -0.39800
N3030       N  0.60532324  0.17685579  0.00243938    -0.37500
N3031       N  0.61068467  0.31844988  0.91796927    -0.38500
N3032       N  0.52489801  0.34411463  0.95502425    -0.40200
C3033       C  0.44776736  0.44378241  0.56546312    -0.05100
C3034       C  0.41425516  0.44956388  0.56882122     0.09000
C3035       C  0.90294428  0.47939527  0.56544321    -0.02500
C3036       C  0.42388706  0.50681367  0.56152415    -0.00700
C3037       C  0.45625194  0.49962358  0.55391121    -0.04400
C3038       C  0.46639133  0.46722937  0.55174021     0.02700
C3039       C  0.89575121  0.41891621  0.56193939     0.09500
C3040       C  0.86858135  0.48503723  0.56451631     0.35400
C3041       C  0.49638413  0.45799430  0.53600987     0.38800
C3042       C  0.87976268  0.40272631  0.58647827    -0.04700
C3043       C  0.87416027  0.36931402  0.58280097     0.02400
C3044       C  0.88867027  0.35171810  0.55706661    -0.04300
C3045       C  0.90437159  0.36885497  0.53265525    -0.00600
C3046       C  0.90310817  0.40228876  0.53300043    -0.03100
C3047       C  0.86895075  0.41995148  0.61512906     0.36100
C3048       C  0.92491823  0.34620437  0.00310373     0.39700
C3049       C  0.85258288  0.35349907  0.60443255     0.38900
C3050       C  0.41297980  0.42273878  0.50580330     0.35800
C3051       C  0.46177863  0.41179447  0.56893199     0.36500
C3052       C  0.91292889  0.53824546  0.56264844     0.39700
N3053       N  0.83453392  0.34124799  0.62116127    -0.38300
N3054       N  0.86008443  0.43239643  0.63871697    -0.39900
N3055       N  0.93779535  0.33532653  0.98067256    -0.37700
N3056       N  0.42248765  0.43748357  0.48473569    -0.40000
N3057       N  0.84120124  0.49006793  0.56257870    -0.39800
N3058       N  0.90258174  0.06018253  0.56585430    -0.37500
N3059       N  0.51986399  0.45062961  0.52274908    -0.38500
N3060       N  0.47340087  0.38645072  0.57021494    -0.40200
C3061       C  0.56070757  0.26549615  0.78971752    -0.05100
C3062       C  0.55871706  0.26787116  0.75606574     0.09000
C3063       C  0.58710605  0.27133719  0.73830984    -0.02500
C3064       C  0.61726383  0.26980969  0.75324607    -0.00700
C3065       C  0.61973835  0.26087700  0.78602884    -0.04400
C3066       C  0.59115912  0.26220130  0.80467088     0.02700
C3067       C  0.52756269  0.26761970  0.73799704     0.09500
C3068       C  0.58541727  0.27194508  0.70359385     0.35400
C3069       C  0.59222545  0.26043683  0.83919871     0.38800
C3070       C  0.50781857  0.29521596  0.73859744    -0.04700
C3071       C  0.98510133  0.29988025  0.71628799     0.02400
C3072       C  0.98557705  0.27929013  0.68844923    -0.04300
C3073       C  0.00214681  0.24969275  0.68978203    -0.00600
C3074       C  0.02199910  0.24347007  0.71649472    -0.03100
C3075       C  0.51102000  0.31949212  0.76413969     0.36100
C3076       C  0.00018918  0.22626310  0.66339788     0.39700
C3077       C  0.96159458  0.32565784  0.71928229     0.38900
C3078       C  0.53863244  0.21254766  0.71625792     0.35800
C3079       C  0.53166217  0.26487969  0.80896699     0.36500
C3080       C  0.64524308  0.27329899  0.73283230     0.39700
N3081       N  0.94226496  0.34582299  0.72113702    -0.38300
N3082       N  0.51338427  0.33872265  0.78460895    -0.39900
N3083       N  0.99858054  0.20725797  0.64265899    -0.37700
N3084       N  0.55102130  0.18762488  0.71825009    -0.40000
N3085       N  0.58341605  0.26995645  0.67595078    -0.39800
N3086       N  0.66736165  0.27456417  0.71620211    -0.37500
N3087       N  0.59024583  0.25971400  0.86683578    -0.38500
N3088       N  0.01048231  0.26221550  0.82754010    -0.40200
C3089       C  0.62326979  0.11685820  0.81714520    -0.05100
C3090       C  0.65037712  0.09893510  0.80613382     0.09000
C3091       C  0.68150691  0.10983999  0.81329291    -0.02500
C3092       C  0.68507728  0.13849284  0.83128122    -0.00700
C3093       C  0.65896175  0.16047709  0.83169422    -0.04400
C3094       C  0.62749063  0.14844159  0.82894868     0.02700
C3095       C  0.64584783  0.06688777  0.79066199     0.09500
C3096       C  0.70897347  0.09311094  0.79919927     0.35400
C3097       C  0.59991706  0.16945296  0.83449163     0.38800
C3098       C  0.62811706  0.06398572  0.76180626    -0.04700
C3099       C  0.60969835  0.03626649  0.75644166     0.02400
C3100       C  0.60854721  0.01383961  0.78109009    -0.04300
C3101       C  0.63503239  0.01134298  0.80176547    -0.00600
C3102       C  0.65218007  0.03949486  0.80892791    -0.03100
C3103       C  0.62448804  0.09127579  0.74116067     0.36100
C3104       C  0.63741809  0.98314493  0.82108524     0.39700
C3105       C  0.08630176  0.03618150  0.73059222     0.38900
C3106       C  0.67081610  0.04328819  0.83812495     0.35800
C3107       C  0.59130234  0.10352685  0.81439357     0.36500
C3108       C  0.71660370  0.14926763  0.84174339     0.39700
N3109       N  0.06792256  0.03498515  0.70960890    -0.38300
N3110       N  0.62124200  0.11323143  0.72494885    -0.39900
N3111       N  0.63762369  0.95958084  0.83517061    -0.37700
N3112       N  0.68567271  0.05040011  0.86074057    -0.40000
N3113       N  0.72956968  0.07904767  0.78633507    -0.39800
N3114       N  0.74141844  0.15864651  0.85026303    -0.37500
N3115       N  0.57824227  0.18673924  0.83871336    -0.38500
N3116       N  0.56598291  0.09243428  0.81201309    -0.40200
C3117       C  0.65052808  0.19112590  0.69187243    -0.05100
C3118       C  0.67706096  0.18302931  0.67242265     0.09000
C3119       C  0.70754233  0.17708072  0.68650334    -0.02500
C3120       C  0.71243756  0.18522910  0.71930874    -0.00700
C3121       C  0.68634101  0.19722228  0.73754603    -0.04400
C3122       C  0.65483672  0.19427578  0.72479023     0.02700
C3123       C  0.67312472  0.18602564  0.63740168     0.09500
C3124       C  0.73337051  0.16311835  0.66723529     0.35400
C3125       C  0.62697098  0.19162791  0.74528681     0.38800
C3126       C  0.68524658  0.21376384  0.62302088    -0.04700
C3127       C  0.67811020  0.21946119  0.59066897     0.02400
C3128       C  0.66172250  0.19580494  0.57276784    -0.04300
C3129       C  0.64163473  0.17508527  0.58950838    -0.00600
C3130       C  0.65051220  0.16677420  0.62062221    -0.03100
C3131       C  0.70516181  0.23541348  0.64183921     0.36100
C3132       C  0.61332860  0.16128956  0.57441233     0.39700
C3133       C  0.69090003  0.24652922  0.57407377     0.38900
C3134       C  0.63525894  0.13995233  0.63588201     0.35800
C3135       C  0.61917827  0.19789236  0.67782991     0.36500
C3136       C  0.74302973  0.17928156  0.73477734     0.39700
N3137       N  0.70042591  0.26786593  0.55980036    -0.38300
N3138       N  0.72094632  0.25094320  0.65895835    -0.39900
N3139       N  0.59005529  0.15032688  0.56359366    -0.37700
N3140       N  0.62271857  0.11904222  0.64844808    -0.40000
N3141       N  0.75377609  0.15135604  0.65196085    -0.39800
N3142       N  0.76706420  0.17373794  0.74769214    -0.37500
N3143       N  0.60461437  0.18844237  0.76134480    -0.38500
N3144       N  0.59481584  0.20264042  0.66514683    -0.40200
C3145       C  0.73375105  0.65211551  0.03792830     0.80600
N3146       N  0.71827360  0.62894822  0.01877394    -0.77700
C3147       C  0.68477375  0.63063789  0.01592052     0.83000
N3148       N  0.66862136  0.65452538  0.03137692    -0.77700
C3149       C  0.68331232  0.67663194  0.04993041     0.83100
N3150       N  0.71562565  0.67488902  0.05328931    -0.79400
C3151       C  0.54428224  0.52292411  0.34482663     0.80600
N3152       N  0.57292416  0.52348787  0.32964974    -0.77700
C3153       C  0.57655438  0.51345801  0.29865517     0.83000
N3154       N  0.55088906  0.50359321  0.28170536    -0.77700
C3155       C  0.02186765  0.50194503  0.29396047     0.83100
N3156       N  0.51768397  0.51144805  0.32756205    -0.79400
C3157       C  0.94724259  0.83676421  0.13347431     0.80600
N3158       N  0.92387381  0.81735575  0.11897615    -0.77700
C3159       C  0.92572213  0.78400655  0.12186821     0.83000
N3160       N  0.94890831  0.77160362  0.14137273    -0.77700
C3161       C  0.97020366  0.79085522  0.15687307     0.83100
N3162       N  0.97006985  0.82230739  0.15116512    -0.79400
C3163       C  0.65421356  0.74086538  0.29517269     0.80600
N3164       N  0.64940756  0.71627058  0.31560803    -0.77700
C3165       C  0.67105653  0.69125853  0.31647231     0.83000
N3166       N  0.69387121  0.68864081  0.29352466    -0.77700
C3167       C  0.69516448  0.70978878  0.27026520     0.83100
N3168       N  0.67947692  0.73805282  0.27479304    -0.79400
O3169       O  0.76048237  0.81872269  0.38950875    -0.78100
C3170       C  0.79133651  0.86158897  0.29490200     0.82900
O3171       O  0.66982346  0.87100802  0.37194362    -0.79200
O3172       O  0.67632460  0.84882374  0.26800564    -0.80700
O3173       O  0.75734589  0.75670221  0.29204863    -0.80500
O3174       O  0.76419982  0.76636465  0.38141357    -0.79100
Zn3175     Zn  0.74640783  0.84285116  0.35118679     1.55700
O3176       O  0.73157217  0.78641875  0.25545763    -0.80500
Cd3177     Cd  0.73509521  0.77019570  0.33751014     1.59700
Cd3178     Cd  0.67235442  0.82549957  0.34462857     1.59600
O3179       O  0.69775965  0.74193074  0.35507160    -0.80500
O3180       O  0.71803104  0.81606659  0.32807055    -1.91000
Cd3181     Cd  0.72356756  0.82948624  0.28181539     1.59900
O3182       O  0.66294660  0.78136063  0.37012058    -0.80500
O3183       O  0.76947304  0.85615069  0.27331323    -0.79100
C3184       C  0.69270294  0.89149908  0.37337287     0.83400
C3185       C  0.76692847  0.79095764  0.40030819     0.83000
O3186       O  0.78491931  0.85549833  0.32417922    -0.78100
C3187       C  0.75274687  0.76529370  0.26265142     0.83900
O3188       O  0.72138572  0.88285501  0.36559592    -0.78200
C3189       C  0.67318501  0.75172275  0.37121602     0.84000
C3190       C  0.64655690  0.84782079  0.27755088     0.84300
O3191       O  0.63976624  0.83659729  0.30522166    -0.80600
C3192       C  0.51883385  0.50793363  0.10373930     0.80600
N3193       N  0.48695923  0.01562520  0.09153990    -0.77700
C3194       C  0.47963987  0.01891408  0.06022545     0.83000
N3195       N  0.50383936  0.02363982  0.03927002    -0.77700
C3196       C  0.53571086  0.51821014  0.04978084     0.83100
N3197       N  0.54332235  0.50907793  0.08099572    -0.79400
C3198       C  0.63241625  0.67941422  0.40892587     0.80600
N3199       N  0.61535435  0.69673660  0.43091927    -0.77700
C3200       C  0.61912099  0.72869829  0.43607705     0.83000
N3201       N  0.63909263  0.74455845  0.41694852    -0.77700
C3202       C  0.65573649  0.72931655  0.39311041     0.83100
N3203       N  0.65339385  0.69593333  0.38949832    -0.79400
C3204       C  0.82376284  0.87859826  0.29057875     0.80600
N3205       N  0.83382370  0.89298562  0.31833481    -0.77700
C3206       C  0.86134654  0.90967491  0.32092853     0.83000
N3207       N  0.88082640  0.91091790  0.29557464    -0.77700
C3208       C  0.87310391  0.89695837  0.26695094     0.83100
N3209       N  0.84360491  0.88082575  0.26357393    -0.79400
C3210       C  0.85942460  0.80991817  0.49407434     0.80600
N3211       N  0.88458194  0.78997065  0.48540828    -0.77700
C3212       C  0.90583733  0.77955204  0.50813478     0.83000
N3213       N  0.90281390  0.78848314  0.03854432    -0.77700
C3214       C  0.88028052  0.81135074  0.04525504     0.83100
N3215       N  0.85511303  0.81689675  0.52556032    -0.79400
O3216       O  0.52876700  0.61082540  0.45046704    -0.78100
C3217       C  0.62463442  0.64346995  0.40850140     0.82900
O3218       O  0.54770924  0.51796339  0.40323221    -0.79200
O3219       O  0.65470207  0.53098537  0.41812356    -0.80700
O3220       O  0.63230632  0.60996034  0.00600834    -0.80500
O3221       O  0.54271211  0.61481082  0.00140825    -0.79100
Zn3222     Zn  0.56765916  0.59531862  0.42360957     1.55700
O3223       O  0.67216462  0.58826769  0.97648902    -0.80500
Cd3224     Cd  0.58743201  0.58626299  0.99658963     1.59700
Cd3225     Cd  0.57856937  0.52370360  0.44600217     1.59600
O3226       O  0.57877280  0.54927375  0.02902314    -0.80500
O3227       O  0.59430631  0.56997579  0.45079891    -1.91000
Cd3228     Cd  0.64082804  0.57737127  0.43626322     1.59900
O3229       O  0.55468933  0.01507079  0.99279573    -0.80500
O3230       O  0.64624719  0.62113584  0.40863623    -0.79100
C3231       C  0.54569277  0.53679465  0.37919704     0.83400
C3232       C  0.52230554  0.61855421  0.97851079     0.83000
O3233       O  0.59526486  0.63618940  0.41428333    -0.78100
C3234       C  0.66256331  0.60763511  0.99869607     0.83900
O3235       O  0.55361020  0.56653847  0.38308591    -0.78200
C3236       C  0.55958588  0.52592956  0.02354014     0.84000
C3237       C  0.64608126  0.00059224  0.41896895     0.84300
O3238       O  0.61918359  0.99240090  0.43124611    -0.80600
C3239       C  0.49123280  0.63836941  0.98044208     0.80600
N3240       N  0.46757435  0.64161108  0.00394910    -0.77700
C3241       C  0.43876202  0.65806205  0.99682996     0.83000
N3242       N  0.93620787  0.67410902  0.46939215    -0.77700
C3243       C  0.46146393  0.67491283  0.44871196     0.83100
N3244       N  0.48838617  0.65850123  0.45576003    -0.79400
C3245       C  0.80153728  0.74738447  0.18708567     0.80600
N3246       N  0.82919157  0.76127470  0.19781332    -0.77700
C3247       C  0.83221613  0.77423465  0.22815342     0.83000
N3248       N  0.80713135  0.77269275  0.24828128    -0.77700
C3249       C  0.77899336  0.75935367  0.23901548     0.83100
N3250       N  0.77565004  0.74677541  0.20794689    -0.79400
C3251       C  0.68781373  0.92728743  0.37819720     0.80600
N3252       N  0.66628535  0.94381769  0.39848153    -0.77700
C3253       C  0.66802594  0.97724752  0.40099433     0.83000
N3254       N  0.69011937  0.99231615  0.38334737    -0.77700
C3255       C  0.70932349  0.97654676  0.36246096     0.83100
N3256       N  0.70829954  0.94435930  0.36023998    -0.79400
C3257       C  0.92543916  0.60766325  0.22592650     0.80600
N3258       N  0.89802990  0.59042437  0.22763484    -0.77700
C3259       C  0.89721045  0.56303567  0.24452149     0.83000
N3260       N  0.92384973  0.55298277  0.26021006    -0.77700
C3261       C  0.95148928  0.56956441  0.25900336     0.83100
N3262       N  0.95193128  0.59652831  0.24135167    -0.79400
O3263       O  0.80304823  0.70263844  0.14758265    -0.78100
C3264       C  0.76910760  0.65400687  0.04694363     0.82900
O3265       O  0.88869076  0.63786582  0.12105084    -0.79200
O3266       O  0.88225812  0.66744580  0.01008476    -0.80700
O3267       O  0.80990127  0.76158389  0.04190438    -0.80500
O3268       O  0.80879299  0.75208742  0.12992531    -0.79100
Zn3269     Zn  0.81395823  0.67381073  0.10550096     1.55700
O3270       O  0.81997665  0.72769466  0.50340728    -0.80500
Cd3271     Cd  0.83286303  0.74346580  0.08484204     1.59700
Cd3272     Cd  0.88915930  0.68275988  0.09201534     1.59600
O3273       O  0.87507518  0.76930871  0.09595935    -0.80500
O3274       O  0.84358618  0.69561205  0.07739101    -1.91000
Cd3275     Cd  0.83529954  0.68345131  0.02968154     1.59900
O3276       O  0.90733256  0.72905776  0.11142883    -0.80500
O3277       O  0.79179029  0.65418438  0.02585553    -0.79100
C3278       C  0.86353563  0.62119026  0.12757955     0.83400
C3279       C  0.80241134  0.73320764  0.15288778     0.83000
O3280       O  0.77491439  0.66196059  0.07654732    -0.78100
C3281       C  0.80916226  0.75551426  0.51268233     0.83900
O3282       O  0.83559444  0.63273100  0.12105812    -0.78200
C3283       C  0.90136279  0.75958561  0.10881636     0.84000
C3284       C  0.91157462  0.66454773  0.02080488     0.84300
O3285       O  0.91795637  0.66955863  0.05074737    -0.80600
C3286       C  0.86275963  0.58863904  0.14442616     0.80600
N3287       N  0.88773228  0.56661794  0.14930420    -0.77700
C3288       C  0.88117554  0.53674677  0.16248732     0.83000
N3289       N  0.85013222  0.53009880  0.17069577    -0.77700
C3290       C  0.82602695  0.55217677  0.16716380     0.83100
N3291       N  0.83275362  0.58046070  0.15381641    -0.79400
C3292       C  0.57312082  0.87487885  0.22563756     0.80600
N3293       N  0.59167897  0.87119205  0.25368332    -0.77700
C3294       C  0.62081767  0.85379284  0.25183600     0.83000
N3295       N  0.62954901  0.84082837  0.22322890    -0.77700
C3296       C  0.61208127  0.84397303  0.19635088     0.83100
N3297       N  0.58426382  0.86112832  0.19771241    -0.79400
C3298       C  0.77296872  0.79126277  0.43626778     0.80600
N3299       N  0.76300368  0.81933684  0.44928937    -0.77700
C3300       C  0.76845717  0.82892398  0.47943634     0.83000
N3301       N  0.78294817  0.80797585  0.49980289    -0.77700
C3302       C  0.79262726  0.77774408  0.48868649     0.83100
N3303       N  0.78810420  0.76950208  0.45612987    -0.79400
C3304       C  0.63093994  0.98254409  0.04119269     0.80600
N3305       N  0.62234316  0.95277441  0.04965449    -0.77700
C3306       C  0.61459195  0.94589142  0.07994045     0.83000
N3307       N  0.61768086  0.47136281  0.10281102    -0.77700
C3308       C  0.62459699  0.50204322  0.09456179     0.83100
N3309       N  0.63122891  0.00634182  0.06418383    -0.79400
O3310       O  0.97594992  0.88483706  0.14513334    -0.78100
C3311       C  0.51787787  0.48895569  0.13433937     0.82900
O3312       O  0.01882706  0.89730862  0.24204502    -0.79200
O3313       O  0.99482105  0.50263727  0.24315895    -0.80700
O3314       O  0.89969911  0.48050021  0.16403908    -0.80500
O3315       O  0.92261017  0.88996813  0.14600966    -0.79100
Zn3316     Zn  0.99879839  0.92485809  0.16559075     1.55700
O3317       O  0.93321454  0.51861817  0.18313247    -0.80500
Cd3318     Cd  0.92026231  0.93313999  0.17729134     1.59700
Cd3319     Cd  0.97361759  0.92596893  0.23950961     1.59600
O3320       O  0.89057216  0.91399219  0.21426490    -0.80500
O3321       O  0.96618590  0.94435520  0.19452475    -1.91000
Cd3322     Cd  0.97555719  0.49144338  0.19595386     1.59900
O3323       O  0.92784375  0.90519090  0.25231357    -0.80500
O3324       O  0.00801070  0.50401324  0.15837155    -0.79100
C3325       C  0.04152798  0.89456792  0.22100548     0.83400
C3326       C  0.94791656  0.87304092  0.13936362     0.83000
O3327       O  0.01431683  0.95864755  0.13109607    -0.78100
C3328       C  0.90656642  0.51068676  0.16935888     0.83900
O3329       O  0.03694088  0.90593806  0.19282918    -0.78200
C3330       C  0.89833670  0.90368006  0.24199799     0.84000
C3331       C  0.99732067  0.48876575  0.27048552     0.84300
O3332       O  0.98673455  0.46029867  0.27412962    -0.80600
C3333       C  0.72425227  0.90200702  0.51511231    -0.05100
C3334       C  0.72378452  0.92192031  0.48837988     0.09000
C3335       C  0.74462067  0.91510496  0.46290309    -0.02500
C3336       C  0.76263623  0.88628981  0.46198332    -0.00700
C3337       C  0.75918890  0.86330208  0.48671329    -0.04400
C3338       C  0.74112413  0.87236395  0.51410484     0.02700
C3339       C  0.69840530  0.94754087  0.48625750     0.09500
C3340       C  0.74694711  0.93745157  0.43721955     0.35400
C3341       C  0.73756814  0.85039818  0.53986590     0.38800
C3342       C  0.70949447  0.97649793  0.00739803    -0.04700
C3343       C  0.68275861  0.99616458  0.01567934     0.02400
C3344       C  0.65131417  0.98367005  0.01192084    -0.04300
C3345       C  0.64699449  0.95773682  0.98957233    -0.00600
C3346       C  0.66670999  0.93860562  0.47796025    -0.03100
C3347       C  0.74187972  0.98601006  0.01635686     0.36100
C3348       C  0.61465847  0.94746304  0.98104917     0.39700
C3349       C  0.68805971  0.02707919  0.03149210     0.38900
C3350       C  0.66077740  0.90790889  0.46169976     0.35800
C3351       C  0.71920854  0.91200316  0.05059916     0.36500
C3352       C  0.78226660  0.87973216  0.43373025     0.39700
N3353       N  0.69361168  0.05165737  0.04386028    -0.38300
N3354       N  0.76777085  0.99326561  0.02370207    -0.39900
N3355       N  0.58897458  0.93920423  0.97409666    -0.37700
N3356       N  0.65594383  0.88349092  0.44868584    -0.40000
N3357       N  0.74971701  0.95530210  0.41674988    -0.39800
N3358       N  0.79667632  0.87530088  0.41025529    -0.37500
N3359       N  0.73457662  0.83271261  0.56045996    -0.38500
N3360       N  0.70922303  0.92320746  0.07423734    -0.40200
C3361       C  0.61665959  0.80484555  0.11287183    -0.05100
C3362       C  0.64773725  0.81489270  0.10513886     0.09000
C3363       C  0.66878387  0.81075948  0.13107187    -0.02500
C3364       C  0.65813618  0.82292374  0.16132937    -0.00700
C3365       C  0.62436322  0.82913753  0.16584634    -0.04400
C3366       C  0.60303493  0.81820652  0.14110859     0.02700
C3367       C  0.64679925  0.84843616  0.09143031     0.09500
C3368       C  0.70242336  0.80386068  0.12507112     0.35400
C3369       C  0.56842674  0.81901881  0.14455027     0.38800
C3370       C  0.66204007  0.87483259  0.10758454    -0.04700
C3371       C  0.64716732  0.90531395  0.10880745     0.02400
C3372       C  0.62072115  0.91199757  0.08849412    -0.04300
C3373       C  0.60898112  0.88698015  0.06798242    -0.00600
C3374       C  0.62250421  0.85577878  0.06877935    -0.03100
C3375       C  0.69488562  0.87263211  0.11959930     0.36100
C3376       C  0.58266592  0.89291990  0.04597213     0.39700
C3377       C  0.65877247  0.43114840  0.13556027     0.38900
C3378       C  0.61172429  0.83115120  0.04588040     0.35800
C3379       C  0.60216545  0.77796708  0.09570899     0.36500
C3380       C  0.68227313  0.83301847  0.18470474     0.39700
N3381       N  0.66886872  0.44875205  0.15500163    -0.38300
N3382       N  0.72124122  0.87260470  0.12883405    -0.39900
N3383       N  0.56163427  0.89624632  0.02805982    -0.37700
N3384       N  0.60309259  0.81176960  0.02738510    -0.40000
N3385       N  0.72969575  0.79933446  0.12116732    -0.39800
N3386       N  0.70203850  0.84112309  0.20276325    -0.37500
N3387       N  0.54071662  0.81982058  0.14692830    -0.38500
N3388       N  0.59097665  0.75593409  0.08242335    -0.40200
C3389       C  0.67972822  0.56216646  0.12903397    -0.05100
C3390       C  0.68839487  0.54528797  0.15671093     0.09000
C3391       C  0.66551408  0.52499453  0.17048507    -0.02500
C3392       C  0.63781636  0.51609003  0.15260430    -0.00700
C3393       C  0.63482528  0.52575703  0.12043924    -0.04400
C3394       C  0.65190970  0.55316938  0.11177098     0.02700
C3395       C  0.72321426  0.54295368  0.16573576     0.09500
C3396       C  0.67198441  0.51087297  0.20123948     0.35400
C3397       C  0.64039921  0.57197281  0.08552173     0.38800
C3398       C  0.73735211  0.56496792  0.18763073    -0.04700
C3399       C  0.77127803  0.56589665  0.19094928     0.02400
C3400       C  0.79131717  0.54461603  0.17245988    -0.04300
C3401       C  0.77660212  0.52039729  0.15327108    -0.00600
C3402       C  0.74286684  0.52004445  0.14931263    -0.03100
C3403       C  0.71702262  0.58723608  0.20598265     0.36100
C3404       C  0.79606892  0.49666179  0.13610759     0.39700
C3405       C  0.78509325  0.58835934  0.21404764     0.38900
C3406       C  0.72845130  0.49766742  0.12623130     0.35800
C3407       C  0.70083515  0.58639748  0.11668284     0.36500
C3408       C  0.61390725  0.49525404  0.16607386     0.39700
N3409       N  0.79452155  0.60645612  0.23336833    -0.38300
N3410       N  0.70095250  0.60498482  0.22078536    -0.39900
N3411       N  0.81109177  0.47714621  0.12252899    -0.37700
N3412       N  0.71683701  0.48031468  0.10743736    -0.40000
N3413       N  0.67690172  0.49927248  0.22572289    -0.39800
N3414       N  0.59479525  0.47829130  0.17628940    -0.37500
N3415       N  0.62657686  0.08540758  0.06483079    -0.38500
N3416       N  0.71760872  0.60562636  0.10649416    -0.40200
C3417       C  0.83066295  0.00676917  0.27237752    -0.05100
C3418       C  0.81086361  0.02967616  0.28868665     0.09000
C3419       C  0.82052307  0.56389104  0.29219564    -0.02500
C3420       C  0.84690825  0.57451072  0.27479738    -0.00700
C3421       C  0.86634947  0.55226677  0.25709216    -0.04400
C3422       C  0.85822426  0.01666728  0.25625173     0.02700
C3423       C  0.78275538  0.01899449  0.30728995     0.09500
C3424       C  0.80299489  0.58665208  0.31283801     0.35400
C3425       C  0.88138295  0.99328051  0.24390449     0.38800
C3426       C  0.78238126  0.02338128  0.34107359    -0.04700
C3427       C  0.75554426  0.01374836  0.35848301     0.02400
C3428       C  0.73221534  0.99418557  0.34308509    -0.04300
C3429       C  0.73294344  0.98904294  0.30942301    -0.00600
C3430       C  0.75698942  0.00337390  0.29134830    -0.03100
C3431       C  0.81061049  0.03521170  0.35824984     0.36100
C3432       C  0.70988938  0.96800413  0.29341271     0.39700
C3433       C  0.75323929  0.02237121  0.39244973     0.38900
C3434       C  0.75617050  0.00056457  0.25648865     0.35800
C3435       C  0.82268183  0.97307922  0.27249154     0.36500
C3436       C  0.85555610  0.60803402  0.27844745     0.39700
N3437       N  0.75139569  0.02967487  0.41943569    -0.38300
N3438       N  0.83318111  0.04429735  0.37199427    -0.39900
N3439       N  0.69209849  0.95070487  0.28052026    -0.37700
N3440       N  0.75590015  0.99777946  0.22875398    -0.40000
N3441       N  0.79006274  0.60493753  0.32995738    -0.39800
N3442       N  0.86138169  0.63489441  0.28275149    -0.37500
N3443       N  0.90155101  0.97597026  0.23490304    -0.38500
N3444       N  0.81458203  0.94660941  0.27201664    -0.40200
C3445       C  0.89817649  0.75602836  0.27858403    -0.05100
C3446       C  0.91277799  0.74085214  0.25164359     0.09000
C3447       C  0.91050007  0.75574225  0.22149510    -0.02500
C3448       C  0.88930607  0.78197470  0.21851719    -0.00700
C3449       C  0.86438458  0.78433630  0.24083130    -0.04400
C3450       C  0.87251257  0.77772228  0.27303810     0.02700
C3451       C  0.91666355  0.70530549  0.25055152     0.09500
C3452       C  0.92012337  0.73723215  0.19316649     0.35400
C3453       C  0.85227205  0.78913266  0.29925267     0.38800
C3454       C  0.88930458  0.68775362  0.24136744    -0.04700
C3455       C  0.89256557  0.65848397  0.22421386     0.02400
C3456       C  0.92301864  0.64322150  0.22170134    -0.04300
C3457       C  0.95051531  0.66196321  0.22866602    -0.00600
C3458       C  0.94721736  0.69196238  0.24494717    -0.03100
C3459       C  0.85759975  0.69930289  0.25081275     0.36100
C3460       C  0.98126067  0.65144741  0.21586755     0.39700
C3461       C  0.86440756  0.64559306  0.20826957     0.38900
C3462       C  0.97426818  0.70876861  0.25846767     0.35800
C3463       C  0.90583132  0.74540191  0.31055154     0.36500
C3464       C  0.88533172  0.79948527  0.18940116     0.39700
N3465       N  0.84080402  0.63764805  0.19580340    -0.38300
N3466       N  0.83244946  0.70747022  0.25979173    -0.39900
N3467       N  0.00486071  0.64240931  0.20387280    -0.37700
N3468       N  0.99419936  0.72314959  0.27161836    -0.40000
N3469       N  0.92688012  0.71901566  0.17274753    -0.39800
N3470       N  0.87920651  0.81503757  0.16760351    -0.37500
N3471       N  0.83619582  0.79799974  0.32042251    -0.38500
N3472       N  0.91230309  0.73716428  0.33614515    -0.40200
C3473       C  0.96107563  0.58334704  0.34237737    -0.05100
C3474       C  0.97373691  0.61425458  0.33705143     0.09000
C3475       C  0.99394692  0.61778693  0.30985263    -0.02500
C3476       C  0.99750452  0.59205535  0.28753740    -0.00700
C3477       C  0.97395977  0.56827837  0.28689297    -0.04400
C3478       C  0.96074844  0.56026031  0.31687029     0.02700
C3479       C  0.96724765  0.64180344  0.36047446     0.09500
C3480       C  0.01033231  0.64746814  0.30374916     0.35400
C3481       C  0.94487023  0.52971777  0.32051686     0.38800
C3482       C  0.99314107  0.65841542  0.37495278    -0.04700
C3483       C  0.48810677  0.68466558  0.39809175     0.02400
C3484       C  0.95754995  0.68330956  0.41392203    -0.04300
C3485       C  0.93064494  0.67200571  0.39667668    -0.00600
C3486       C  0.93539932  0.65085795  0.36981875    -0.03100
C3487       C  0.52572410  0.64630980  0.37196414     0.36100
C3488       C  0.89860627  0.67963032  0.40845365     0.39700
C3489       C  0.51537287  0.70197041  0.41144017     0.38900
C3490       C  0.90776705  0.63560826  0.35502063     0.35800
C3491       C  0.94805760  0.57556179  0.37348683     0.36500
C3492       C  0.02018615  0.59341205  0.26130311     0.39700
N3493       N  0.53784933  0.71483079  0.42175610    -0.38300
N3494       N  0.55072071  0.63444386  0.36836301    -0.39900
N3495       N  0.87248080  0.67045877  0.91565526    -0.37700
N3496       N  0.88529345  0.62272008  0.34477076    -0.40000
N3497       N  0.02477530  0.67043967  0.29899842    -0.39800
N3498       N  0.03889078  0.59477917  0.24090675    -0.37500
N3499       N  0.93236649  0.50525001  0.32357276    -0.38500
N3500       N  0.93771599  0.56934099  0.39827885    -0.40200
C3501       C  0.85395573  0.89499747  0.46778793    -0.05100
C3502       C  0.86648679  0.89092522  0.43652079     0.09000
C3503       C  0.86616486  0.85947815  0.42168966    -0.02500
C3504       C  0.85701037  0.83270911  0.43930222    -0.00700
C3505       C  0.84996880  0.83634995  0.47204443    -0.04400
C3506       C  0.84402116  0.86813174  0.48477749     0.02700
C3507       C  0.87554336  0.91954265  0.41752305     0.09500
C3508       C  0.87462719  0.85384128  0.38820244     0.35400
C3509       C  0.82783181  0.87399714  0.51532891     0.38800
C3510       C  0.90382200  0.91716022  0.39886262    -0.04700
C3511       C  0.90122897  0.92092288  0.36533424     0.02400
C3512       C  0.87006300  0.92506897  0.35198980    -0.04300
C3513       C  0.84522011  0.93724430  0.37194278    -0.00600
C3514       C  0.84986674  0.93778613  0.40509260    -0.03100
C3515       C  0.93278404  0.90338553  0.41257406     0.36100
C3516       C  0.81360483  0.94428577  0.35906228     0.39700
C3517       C  0.92909565  0.91533610  0.34498988     0.38900
C3518       C  0.82872658  0.95695697  0.42556565     0.35800
C3519       C  0.85261836  0.92655070  0.48352989     0.36500
C3520       C  0.85293809  0.80153416  0.42344177     0.39700
N3521       N  0.95148298  0.91111084  0.32889656    -0.38300
N3522       N  0.95582749  0.89184724  0.42321488    -0.39900
N3523       N  0.78813520  0.94780542  0.34839052    -0.37700
N3524       N  0.81261726  0.97377168  0.44141179    -0.40000
N3525       N  0.88157692  0.84807584  0.36175370    -0.39800
N3526       N  0.84879412  0.77693635  0.41048444    -0.37500
N3527       N  0.81482781  0.87930640  0.53949024    -0.36500
N3528       N  0.85173768  0.95147883  0.49657212    -0.40200
C3529       C  0.56033665  0.79072827  0.47063508    -0.05100
C3530       C  0.54090709  0.76973951  0.48776009     0.09000
C3531       C  0.55318458  0.73925743  0.49619613    -0.02500
C3532       C  0.58245271  0.72826505  0.48338891    -0.00700
C3533       C  0.59799921  0.74616355  0.45970423    -0.04400
C3534       C  0.58856857  0.77880038  0.45567219     0.02700
C3535       C  0.50598552  0.77647277  0.49200876     0.09500
C3536       C  0.53443916  0.71739432  0.51511715     0.35400
C3537       C  0.60579761  0.79965240  0.43449882     0.38800
C3538       C  0.48512698  0.77453807  0.46498532    -0.04700
C3539       C  0.95052169  0.76902648  0.46740445     0.02400
C3540       C  0.93812738  0.76608114  0.49884585    -0.04300
C3541       C  0.46172397  0.76381372  0.52601828    -0.00600
C3542       C  0.49299240  0.77472982  0.52282364    -0.03100
C3543       C  0.99653478  0.77674194  0.43077801     0.36100
C3544       C  0.45599712  0.74158949  0.55108880     0.39700
C3545       C  0.93011996  0.76506516  0.43936815     0.38900
C3546       C  0.51238716  0.78063330  0.55140682     0.35800
C3547       C  0.54986510  0.82374691  0.46640902     0.36500
C3548       C  0.59413876  0.69658411  0.49161848     0.39700
N3549       N  0.91555940  0.76120316  0.41590406    -0.38300
N3550       N  0.00642330  0.77967350  0.40504647    -0.39900
N3551       N  0.45740751  0.72529116  0.07391331    -0.37700
N3552       N  0.52668977  0.78563079  0.57485537    -0.40000
N3553       N  0.52000711  0.69964990  0.53026029    -0.39800
N3554       N  0.60302433  0.67078433  0.49656072    -0.37500
N3555       N  0.61912363  0.81661512  0.41756394    -0.38500
N3556       N  0.54156059  0.85007310  0.46293545    -0.40200
C3557       C  0.45515216  0.93913629  0.06610532    -0.05100
C3558       C  0.42118899  0.94030656  0.06778421     0.09000
C3559       C  0.90455403  0.97090514  0.06330316    -0.02500
C3560       C  0.42346707  0.99786902  0.05765199    -0.00700
C3561       C  0.45643763  0.99431266  0.05037923    -0.04400
C3562       C  0.47021876  0.96328163  0.04972366     0.02700
C3563       C  0.90403125  0.90987140  0.06107381     0.09500
C3564       C  0.86984720  0.97290879  0.06214409     0.35400
C3565       C  0.49988237  0.95630893  0.03249075     0.38800
C3566       C  0.88400189  0.89513371  0.08351013    -0.04700
C3567       C  0.87702305  0.86199551  0.07962185     0.02400
C3568       C  0.89275414  0.84320891  0.05539984    -0.04300
C3569       C  0.91294601  0.85881352  0.03326323    -0.00600
C3570       C  0.91481471  0.89211659  0.03387827    -0.03100
C3571       C  0.87000901  0.91390369  0.10980111     0.36100
C3572       C  0.92508916  0.84980196  0.50499723     0.39700
C3573       C  0.85262452  0.84763874  0.09930554     0.38900
C3574       C  0.43239113  0.90639543  0.00832359     0.35800
C3575       C  0.47349327  0.91027295  0.07351981     0.36500
C3576       C  0.90840599  0.03032199  0.05805494     0.39700
N3577       N  0.83268602  0.83636332  0.11455984    -0.38300
N3578       N  0.85881638  0.92842417  0.13117130    -0.39900
N3579       N  0.93954217  0.83998274  0.48307270    -0.37700
N3580       N  0.44529518  0.91847774  0.98731230    -0.40000
N3581       N  0.84211407  0.97450286  0.05993082    -0.39800
N3582       N  0.90048661  0.55891500  0.07201356    -0.37500
N3583       N  0.52295105  0.95103729  0.01772140    -0.38500
N3584       N  0.48880958  0.88748116  0.07837456    -0.40200
C3585       C  0.56699974  0.76733554  0.28678971    -0.05100
C3586       C  0.56532991  0.76850166  0.25297324     0.09000
C3587       C  0.59394484  0.76867579  0.23510131    -0.02500
C3588       C  0.62386551  0.76785940  0.25052636    -0.00700
C3589       C  0.62581624  0.76040712  0.28380747    -0.04400
C3590       C  0.59707558  0.76283617  0.30212590     0.02700
C3591       C  0.53414505  0.76975158  0.23507766     0.09500
C3592       C  0.59290814  0.76472968  0.20038187     0.35400
C3593       C  0.59746441  0.76005287  0.33663081     0.38800
C3594       C  0.51482770  0.79759063  0.23654434    -0.04700
C3595       C  0.98990591  0.80201849  0.21284753     0.02400
C3596       C  0.98813091  0.78035930  0.18582362    -0.04300
C3597       C  0.00449310  0.75063804  0.18700781    -0.00600
C3598       C  0.02580733  0.74501656  0.21270169    -0.03100
C3599       C  0.52033272  0.82237363  0.26114373     0.36100
C3600       C  0.00057300  0.72630811  0.16168249     0.39700
C3601       C  0.96692501  0.82820262  0.21681922     0.38900
C3602       C  0.54077697  0.71326619  0.21677607     0.35800
C3603       C  0.53779619  0.76845064  0.30588870     0.36500
C3604       C  0.65209066  0.77042454  0.23024938     0.39700
N3605       N  0.94815543  0.84888999  0.21953383    -0.38300
N3606       N  0.52459999  0.84165637  0.28121420    -0.39900
N3607       N  0.99739061  0.70665531  0.14177450    -0.37700
N3608       N  0.55177071  0.68817472  0.22169404    -0.40000
N3609       N  0.59226671  0.75909339  0.17303724    -0.39800
N3610       N  0.67447802  0.77076740  0.21384493    -0.37500
N3611       N  0.59516314  0.75810262  0.36418172    -0.38500
N3612       N  0.01486940  0.77210262  0.32187736    -0.40200
C3613       C  0.62798040  0.61782662  0.31534838    -0.05100
C3614       C  0.65492735  0.59988532  0.30388667     0.09000
C3615       C  0.68612983  0.61014938  0.31207373    -0.02500
C3616       C  0.68968278  0.63824199  0.33106724    -0.00700
C3617       C  0.66389102  0.66061315  0.33157545    -0.04400
C3618       C  0.63238563  0.64897543  0.32813418     0.02700
C3619       C  0.64976773  0.56764426  0.28889358     0.09500
C3620       C  0.71390048  0.59296336  0.29921467     0.35400
C3621       C  0.60492487  0.66997881  0.33418729     0.38800
C3622       C  0.63076610  0.56474779  0.26073778    -0.04700
C3623       C  0.60943996  0.53884277  0.25773398     0.02400
C3624       C  0.60791930  0.51728061  0.28308237    -0.04300
C3625       C  0.63457259  0.51407269  0.30346127    -0.00600
C3626       C  0.65425381  0.54086824  0.30852787    -0.03100
C3627       C  0.62834128  0.59119033  0.23891540     0.36100
C3628       C  0.63541977  0.48681773  0.32419720     0.39700
C3629       C  0.08706511  0.53691016  0.23141809     0.38900
C3630       C  0.67287092  0.54481514  0.33779378     0.35800
C3631       C  0.59599039  0.60449690  0.31348648     0.36500
C3632       C  0.72108309  0.64830499  0.34261426     0.39700
N3633       N  0.06824614  0.53561089  0.21085135    -0.38300
N3634       N  0.62590106  0.61235326  0.22158610    -0.39900
N3635       N  0.63397166  0.46402903  0.33934690    -0.37700
N3636       N  0.68762211  0.55170233  0.36054308    -0.40000
N3637       N  0.73538836  0.57901495  0.28776936    -0.39800
N3638       N  0.74581509  0.65712249  0.35199583    -0.37500
N3639       N  0.58323975  0.68719020  0.33862679    -0.38500
N3640       N  0.57063566  0.59339330  0.31231387    -0.40200
C3641       C  0.65213927  0.68524771  0.19451130    -0.05100
C3642       C  0.67823637  0.67891937  0.17393423     0.09000
C3643       C  0.70945904  0.67437176  0.18680359    -0.02500
C3644       C  0.71547432  0.68307446  0.21919668    -0.00700
C3645       C  0.68990475  0.69457810  0.23833814    -0.04400
C3646       C  0.65784501  0.69020542  0.22714135     0.02700
C3647       C  0.67347082  0.68377733  0.13922441     0.09500
C3648       C  0.73528512  0.66257328  0.16626535     0.35400
C3649       C  0.63049346  0.68926791  0.24854478     0.38800
C3650       C  0.68687360  0.71133041  0.12546849    -0.04700
C3651       C  0.68142523  0.71711335  0.09279702     0.02400
C3652       C  0.66427988  0.69425665  0.07448416    -0.04300
C3653       C  0.64268621  0.67461491  0.09063246    -0.00600
C3654       C  0.65093843  0.66524690  0.12154173    -0.03100
C3655       C  0.70746549  0.73199134  0.14476248     0.36100
C3656       C  0.61447039  0.66168808  0.07462285     0.39700
C3657       C  0.69816868  0.74201682  0.07618353     0.38900
C3658       C  0.63606216  0.63730362  0.13511379     0.35800
C3659       C  0.61969082  0.68845111  0.18177731     0.36500
C3660       C  0.74710203  0.67911730  0.23316148     0.39700
N3661       N  0.71133181  0.76128052  0.06179569    -0.38300
N3662       N  0.72390598  0.74693154  0.16179389    -0.39900
N3663       N  0.59133747  0.65140931  0.06281027    -0.37700
N3664       N  0.62374471  0.61556716  0.14645475    -0.40000
N3665       N  0.75575705  0.65289776  0.14976757    -0.39800
N3666       N  0.77212855  0.67540042  0.24484157    -0.37500
N3667       N  0.60775864  0.68771948  0.26435034    -0.38500
N3668       N  0.59451200  0.69000239  0.16984426    -0.40200
C3669       C  0.73481637  0.65568863  0.53500011     0.80600
N3670       N  0.71922769  0.63185934  0.51673850    -0.77700
C3671       C  0.68573136  0.63349982  0.51370884     0.83000
N3672       N  0.66957713  0.65796390  0.52842713    -0.77700
C3673       C  0.68438882  0.68064613  0.54629637     0.83100
N3674       N  0.71672791  0.67908596  0.54941307    -0.79400
C3675       C  0.54517214  0.51965741  0.84513639     0.80600
N3676       N  0.57398593  0.52006892  0.83032031    -0.77700
C3677       C  0.57790323  0.51068421  0.79919422     0.83000
N3678       N  0.55229876  0.50147706  0.78171026    -0.77700
C3679       C  0.02327551  0.50131221  0.79429932     0.83100
N3680       N  0.51855421  0.50898175  0.82727330    -0.79400
C3681       C  0.95103389  0.83608582  0.63602743     0.80600
N3682       N  0.92864482  0.81662283  0.62017384    -0.77700
C3683       C  0.93002769  0.78337673  0.62355850     0.83000
N3684       N  0.95225882  0.77099819  0.64424070    -0.77700
C3685       C  0.97269404  0.79032587  0.66098672     0.83100
N3686       N  0.97259791  0.82187882  0.65550078    -0.79400
C3687       C  0.65605888  0.73914782  0.79480515     0.80600
N3688       N  0.65169192  0.71478473  0.81552472    -0.77700
C3689       C  0.67289182  0.68945534  0.81577096     0.83000
N3690       N  0.69481819  0.68620341  0.79193018    -0.77700
C3691       C  0.69649649  0.70786217  0.76900458     0.83100
N3692       N  0.68071611  0.73610531  0.77369454    -0.79400
O3693       O  0.76158127  0.81832844  0.88914428    -0.78100
C3694       C  0.79125913  0.86346154  0.79396817     0.82900
O3695       O  0.66916152  0.86991442  0.87205731    -0.79200
O3696       O  0.67711626  0.84916297  0.76818547    -0.80700
O3697       O  0.75786354  0.75746094  0.79044106    -0.80500
O3698       O  0.76524787  0.76601543  0.88031141    -0.79100
Zn3699     Zn  0.74696334  0.84311533  0.85109893     1.55700
O3700       O  0.73086398  0.78717964  0.75481608    -0.80500
Cd3701     Cd  0.73593208  0.76990840  0.83655064     1.59700
Cd3702     Cd  0.67295406  0.82444429  0.84451192     1.59600
O3703       O  0.69916747  0.74090957  0.85476558    -0.80500
O3704       O  0.71882301  0.81601131  0.82787062    -1.91000
Cd3705     Cd  0.72407274  0.82997978  0.78165405     1.59900
O3706       O  0.66462692  0.78023134  0.87049469    -0.80500
O3707       O  0.76963446  0.85693114  0.77244728    -0.79100
C3708       C  0.69192708  0.89047936  0.87432452     0.83400
C3709       C  0.76800305  0.79033820  0.89955187     0.83000
O3710       O  0.78488697  0.85770296  0.82340414    -0.78100
C3711       C  0.75273199  0.76656064  0.76126193     0.83900
O3712       O  0.72073503  0.88205921  0.86663894    -0.78200
C3713       C  0.67492329  0.75059001  0.87150385     0.84000
C3714       C  0.64736113  0.84670247  0.77720506     0.84300
O3715       O  0.64056763  0.83459670  0.80451847    -0.80600
C3716       C  0.52031917  0.50734587  0.60235127     0.80600
N3717       N  0.49064306  0.01719798  0.59340240    -0.77700
C3718       C  0.48227556  0.02009470  0.56235886     0.83000
N3719       N  0.50582774  0.02322227  0.54029395    -0.77700
C3720       C  0.53732968  0.51977190  0.54903951     0.83100
N3721       N  0.54467271  0.50849691  0.57951680    -0.79400
C3722       C  0.63405714  0.67798391  0.90925150     0.80600
N3723       N  0.61579821  0.69543522  0.93012536    -0.77700
C3724       C  0.61885069  0.72755079  0.93484787     0.83000
N3725       N  0.63956167  0.74345456  0.91648958    -0.77700
C3726       C  0.65744688  0.72808567  0.89356755     0.83100
N3727       N  0.65562498  0.69455608  0.89037354    -0.79400
C3728       C  0.82335318  0.88114663  0.78915063     0.80600
N3729       N  0.83311333  0.89622795  0.81662115    -0.77700
C3730       C  0.86061673  0.91294991  0.81911356     0.83000
N3731       N  0.88030847  0.91370991  0.79389749    -0.77700
C3732       C  0.87300777  0.89906281  0.76553327     0.83100
N3733       N  0.84360960  0.88262510  0.76230366    -0.79400
C3734       C  0.86064300  0.80735797  0.99310609     0.80600
N3735       N  0.88501569  0.78616511  0.98530321    -0.77700
C3736       C  0.90483766  0.77442338  0.00871705     0.83000
N3737       N  0.90413336  0.79368333  0.53797195    -0.77700
C3738       C  0.88039537  0.81499872  0.54556932     0.83100
N3739       N  0.85579119  0.81469952  0.02445917    -0.79400
O3740       O  0.52994229  0.60926172  0.94974504    -0.78100
C3741       C  0.62652741  0.64184559  0.90911511     0.82900
O3742       O  0.54860472  0.51525153  0.90376127    -0.79200
O3743       O  0.65572223  0.52966397  0.91977224    -0.80700
O3744       O  0.63352567  0.61106744  0.50594639    -0.80500
O3745       O  0.54388843  0.61657251  0.50157463    -0.79100
Zn3746     Zn  0.56882790  0.59335327  0.92308258     1.55700
O3747       O  0.67250849  0.59140252  0.47396734    -0.80500
Cd3748     Cd  0.58843569  0.58763265  0.49634385     1.59700
Cd3749     Cd  0.57891265  0.52178494  0.94698070     1.59600
O3750       O  0.58066503  0.55009762  0.52825384    -0.80500
O3751       O  0.59446911  0.56818766  0.95133743    -1.91000
Cd3752     Cd  0.64144675  0.57559129  0.93803209     1.59900
O3753       O  0.55657960  0.01396096  0.49290244    -0.80500
O3754       O  0.64829041  0.61981857  0.91133138    -0.79100
C3755       C  0.54651640  0.53383464  0.87949835     0.83400
C3756       C  0.52259851  0.62049859  0.47942624     0.83000
O3757       O  0.59686135  0.63427285  0.91318017    -0.78100
C3758       C  0.66344961  0.60977873  0.49731066     0.83900
O3759       O  0.55452636  0.56361140  0.88308637    -0.78200
C3760       C  0.56109911  0.52708408  0.52279157     0.84000
C3761       C  0.64429741  0.00038024  0.91899416     0.84300
O3762       O  0.61749767  0.99246364  0.93168927    -0.80600
C3763       C  0.49268337  0.64181339  0.48242588     0.80600
N3764       N  0.46804285  0.64258941  0.50497085    -0.77700
C3765       C  0.43972590  0.65997070  0.49851439     0.83000
N3766       N  0.93506824  0.67079855  0.96696089    -0.77700
C3767       C  0.45870150  0.66770617  0.94468969     0.83100
N3768       N  0.48562205  0.65187984  0.95234857    -0.79400
C3769       C  0.80299787  0.75118030  0.68608600     0.80600
N3770       N  0.83003291  0.76607506  0.69726991    -0.77700
C3771       C  0.83204182  0.77914983  0.72768246     0.83000
N3772       N  0.80654220  0.77702296  0.74712941    -0.77700
C3773       C  0.77914857  0.76254547  0.73751442     0.83100
N3774       N  0.77684984  0.74957844  0.70651904    -0.79400
C3775       C  0.68710551  0.92630129  0.87990009     0.80600
N3776       N  0.66475983  0.94296902  0.89934233    -0.77700
C3777       C  0.66672847  0.97649015  0.90200457     0.83000
N3778       N  0.68978903  0.99130023  0.88542749    -0.77700
C3779       C  0.70981552  0.97541658  0.86541005     0.83100
N3780       N  0.70847792  0.94329922  0.86297597    -0.79400
C3781       C  0.92236305  0.61081888  0.72536781     0.80600
N3782       N  0.89491245  0.59363969  0.72736455    -0.77700
C3783       C  0.89480015  0.56476032  0.74181466     0.83000
N3784       N  0.92234085  0.55325518  0.75485554    -0.77700
C3785       C  0.95003607  0.56980221  0.75329983     0.83100
N3786       N  0.94967507  0.59811654  0.73785577    -0.79400
O3787       O  0.80333438  0.70610868  0.64655157    -0.78100
C3788       C  0.77003766  0.65724953  0.54491554     0.82900
O3789       O  0.88927334  0.63890880  0.62101099    -0.79200
O3790       O  0.88317647  0.66971244  0.51069473    -0.80700
O3791       O  0.81231819  0.76502140  0.54237074    -0.80500
O3792       O  0.81367279  0.75511273  0.62954829    -0.79100
Zn3793     Zn  0.81449725  0.67607022  0.60488491     1.55700
O3794       O  0.81866052  0.72425051  0.00308027    -0.80500
Cd3795     Cd  0.83676204  0.74596301  0.58437342     1.59700
Cd3796     Cd  0.89017985  0.68368719  0.59272459     1.59600
O3797       O  0.88043231  0.76982692  0.59521942    -0.80500
O3798       O  0.84500279  0.69765144  0.57740711    -1.91000
Cd3799     Cd  0.83654518  0.68644196  0.52954605     1.59900
O3800       O  0.91017635  0.72881312  0.61333568    -0.80500
O3801       O  0.79312849  0.65744460  0.52430767    -0.79100
C3802       C  0.86407469  0.62236761  0.62738630     0.83400
C3803       C  0.80492134  0.73666324  0.65203685     0.83000
O3804       O  0.77545110  0.66490661  0.57471228    -0.78100
C3805       C  0.80776184  0.75205489  0.01210063     0.83900
O3806       O  0.83609595  0.63413638  0.62091413    -0.78200
C3807       C  0.90562234  0.75943466  0.60970371     0.84000
C3808       C  0.91210793  0.66537843  0.52184350     0.84300
O3809       O  0.91832242  0.66931672  0.55188177    -0.80600
C3810       C  0.86383762  0.58983202  0.64427192     0.80600
N3811       N  0.88897679  0.56771186  0.64819712    -0.77700
C3812       C  0.88295439  0.53784929  0.66169258     0.83000
N3813       N  0.85221727  0.53134741  0.67104115    -0.77700
C3814       C  0.82805782  0.55351469  0.66843184     0.83100
N3815       N  0.83423933  0.58178451  0.65481968    -0.79400
C3816       C  0.57462241  0.87318495  0.72450166     0.80600
N3817       N  0.59257600  0.86902122  0.75278361    -0.77700
C3818       C  0.62204555  0.85229762  0.75109950     0.83000
N3819       N  0.63181504  0.84046948  0.72230160    -0.77700
C3820       C  0.61498615  0.84413576  0.69506609     0.83100
N3821       N  0.58674824  0.86066695  0.69639130    -0.79400
C3822       C  0.77432209  0.79006932  0.93554538     0.80600
N3823       N  0.76547326  0.81828280  0.94902797    -0.77700
C3824       C  0.77082326  0.82694371  0.97952251     0.83000
N3825       N  0.78399987  0.80499571  0.99946929    -0.77700
C3826       C  0.79252781  0.77477219  0.98796560     0.83100
N3827       N  0.78814048  0.76719842  0.95518279    -0.79400
C3828       C  0.62825637  0.98281785  0.54131729     0.80600
N3829       N  0.61971467  0.95312696  0.55003061    -0.77700
C3830       C  0.61344034  0.94600142  0.58064287     0.83000
N3831       N  0.61714331  0.47440759  0.60595406    -0.77700
C3832       C  0.62532285  0.50497066  0.59852687     0.83100
N3833       N  0.62996565  0.00645656  0.56449414    -0.79400
O3834       O  0.97958711  0.88436847  0.64606990    -0.78100
C3835       C  0.51945075  0.48834501  0.63282291     0.82900
O3836       O  0.01998698  0.89524358  0.74147304    -0.79200
O3837       O  0.99721881  0.50217678  0.74275758    -0.80700
O3838       O  0.90141652  0.48150538  0.66281649    -0.80500
O3839       O  0.92613941  0.88948617  0.64604934    -0.79100
Zn3840     Zn  0.00165716  0.92475658  0.66599431     1.55700
O3841       O  0.93523793  0.51939183  0.68193253    -0.80500
Cd3842     Cd  0.92264920  0.93325660  0.67636710     1.59700
Cd3843     Cd  0.97522670  0.92525248  0.73904083     1.59600
O3844       O  0.89202695  0.91468556  0.71286759    -0.80500
O3845       O  0.96834090  0.94421046  0.69426529    -1.91000
Cd3846     Cd  0.97739063  0.49176101  0.69535150     1.59900
O3847       O  0.92842352  0.90596394  0.75171204    -0.80500
O3848       O  0.01042124  0.50354877  0.65780651    -0.79100
C3849       C  0.04327642  0.89328076  0.72094224     0.83400
C3850       C  0.95163238  0.87241584  0.64047263     0.83000
O3851       O  0.01767238  0.95821885  0.63159669    -0.78100
C3852       C  0.90850459  0.51167105  0.66808078     0.83900
O3853       O  0.03949787  0.90586437  0.69324444    -0.78200
C3854       C  0.89902808  0.90476398  0.74092665     0.84000
C3855       C  0.99852834  0.48882028  0.77046630     0.84300
O3856       O  0.98591614  0.46128136  0.77458577    -0.80600
C3857       C  0.73243723  0.90062305  0.02042163    -0.05100
C3858       C  0.72985826  0.92060755  0.99384534     0.09000
C3859       C  0.74784954  0.91354979  0.96637943    -0.02500
C3860       C  0.76523384  0.88458720  0.96369616    -0.00700
C3861       C  0.76274646  0.86116497  0.98806331    -0.04400
C3862       C  0.74789028  0.87033499  0.01736641     0.02700
C3863       C  0.70433587  0.94592073  0.99322299     0.09500
C3864       C  0.74763864  0.93590260  0.94052483     0.35400
C3865       C  0.74735354  0.84850348  0.04367638     0.38800
C3866       C  0.70390951  0.97864172  0.49916126    -0.04700
C3867       C  0.67764753  0.99723734  0.51103273     0.02400
C3868       C  0.64643345  0.98392240  0.51051430    -0.04300
C3869       C  0.64071404  0.95811074  0.48843723    -0.00600
C3870       C  0.67344303  0.93769420  0.98173559    -0.03100
C3871       C  0.73659255  0.99012689  0.50259599     0.36100
C3872       C  0.60782854  0.94878705  0.48104422     0.39700
C3873       C  0.68341832  0.02825743  0.52633027     0.38900
C3874       C  0.66834008  0.90672053  0.96563964     0.35800
C3875       C  0.70689561  0.91279629  0.54331470     0.36500
C3876       C  0.78380763  0.87870974  0.93458390     0.39700
N3877       N  0.68903663  0.05305154  0.53817652    -0.38300
N3878       N  0.76268085  0.99937757  0.50506376    -0.39900
N3879       N  0.58169683  0.94184232  0.47449576    -0.37700
N3880       N  0.66433996  0.88188118  0.95312824    -0.40000
N3881       N  0.74829715  0.95404925  0.92011375    -0.39800
N3882       N  0.79762589  0.87479731  0.91069964    -0.37500
N3883       N  0.74729358  0.83100162  0.06471466    -0.38500
N3884       N  0.69312286  0.92407725  0.56487607    -0.40200
C3885       C  0.62235864  0.80845128  0.60997822    -0.05100
C3886       C  0.65379161  0.81830986  0.60371071     0.09000
C3887       C  0.67415659  0.81397690  0.63017144    -0.02500
C3888       C  0.66227496  0.82445359  0.66060398    -0.00700
C3889       C  0.62830931  0.83040168  0.66429044    -0.04400
C3890       C  0.60783442  0.82082896  0.63824059     0.02700
C3891       C  0.65360336  0.85161471  0.58985679     0.09500
C3892       C  0.70829564  0.80904164  0.62486955     0.35400
C3893       C  0.57308901  0.82370985  0.63972408     0.38800
C3894       C  0.66414390  0.87800665  0.60920012    -0.04700
C3895       C  0.64556946  0.90627263  0.61165880     0.02400
C3896       C  0.62082301  0.91214968  0.58893906    -0.04300
C3897       C  0.61367836  0.88740544  0.56583910    -0.00600
C3898       C  0.63132533  0.85825833  0.56520251    -0.03100
C3899       C  0.69641095  0.87854645  0.62298164     0.36100
C3900       C  0.58797977  0.89149899  0.54263011     0.39700
C3901       C  0.66355650  0.43590367  0.63355245     0.38900
C3902       C  0.62741014  0.83526224  0.53869893     0.35800
C3903       C  0.60606170  0.78713167  0.58748474     0.36500
C3904       C  0.68557517  0.83384320  0.68509001     0.39700
N3905       N  0.67640567  0.45431698  0.65033981    -0.38300
N3906       N  0.72197112  0.88047130  0.63404065    -0.39900
N3907       N  0.56746046  0.89354773  0.52391728    -0.37700
N3908       N  0.62448966  0.81726085  0.51720371    -0.40000
N3909       N  0.73581100  0.80592128  0.62150240    -0.39800
N3910       N  0.70480302  0.84162431  0.70388575    -0.37500
N3911       N  0.54534323  0.82628693  0.64074922    -0.38500
N3912       N  0.59410981  0.76938794  0.56926007    -0.40200
C3913       C  0.68095523  0.56410623  0.63319170    -0.05100
C3914       C  0.69043689  0.54649176  0.66009851     0.09000
C3915       C  0.66808089  0.52583268  0.67408397    -0.02500
C3916       C  0.64003600  0.51704072  0.65671968    -0.00700
C3917       C  0.63586384  0.52788325  0.62497491    -0.04400
C3918       C  0.65260507  0.55571376  0.61655395     0.02700
C3919       C  0.72542933  0.54421969  0.66825998     0.09500
C3920       C  0.67538831  0.51127770  0.70448609     0.35400
C3921       C  0.64197655  0.57403670  0.58945812     0.38800
C3922       C  0.73971338  0.56613339  0.69011665    -0.04700
C3923       C  0.77364998  0.56739716  0.69277633     0.02400
C3924       C  0.79355920  0.54584910  0.67444334    -0.04300
C3925       C  0.77870401  0.52193840  0.65501777    -0.00600
C3926       C  0.74506654  0.52223675  0.65059398    -0.03100
C3927       C  0.71951582  0.58905205  0.70783700     0.36100
C3928       C  0.79797143  0.49846614  0.63728952     0.39700
C3929       C  0.78754086  0.59165438  0.71385802     0.38900
C3930       C  0.73115010  0.50286025  0.62465044     0.35800
C3931       C  0.70218946  0.58793953  0.62032093     0.36500
C3932       C  0.61775587  0.49432345  0.67001029     0.39700
N3933       N  0.79680570  0.61157405  0.73132391    -0.38300
N3934       N  0.70341016  0.60745846  0.72179745    -0.39900
N3935       N  0.81270983  0.47917957  0.62310628    -0.37700
N3936       N  0.72033050  0.48839908  0.60314329    -0.40000
N3937       N  0.68072487  0.49943249  0.72877651    -0.39800
N3938       N  0.60026104  0.47579800  0.68033220    -0.37500
N3939       N  0.62601885  0.08635357  0.56740734    -0.38500
N3940       N  0.71912120  0.60663099  0.60947550    -0.40200
C3941       C  0.82794427  0.00924366  0.77237160    -0.05100
C3942       C  0.80868452  0.03194592  0.78985557     0.09000
C3943       C  0.81880036  0.56258434  0.79084690    -0.02500
C3944       C  0.84471570  0.57421087  0.77342643    -0.00700
C3945       C  0.86443046  0.55283392  0.75492232    -0.04400
C3946       C  0.85520035  0.01932436  0.75578548     0.02700
C3947       C  0.78102519  0.02101788  0.80927425     0.09500
C3948       C  0.80126962  0.58457823  0.81231824     0.35400
C3949       C  0.87761956  0.99595258  0.74207982     0.38800
C3950       C  0.78056764  0.02602573  0.84311582    -0.04700
C3951       C  0.75499060  0.01408996  0.86105672     0.02400
C3952       C  0.73272824  0.99304970  0.84600721    -0.04300
C3953       C  0.73320306  0.98804979  0.81233791    -0.00600
C3954       C  0.75567750  0.00419918  0.79391286    -0.03100
C3955       C  0.80670957  0.04241196  0.85987160     0.36100
C3956       C  0.71140942  0.96555144  0.79652107     0.39700
C3957       C  0.75255092  0.02236711  0.89512559     0.38900
C3958       C  0.75327809  0.00272217  0.75910047     0.35800
C3959       C  0.81961104  0.97555622  0.77090579     0.36500
C3960       C  0.85245645  0.60792660  0.77785294     0.39700
N3961       N  0.75037586  0.02939431  0.92215114    -0.38300
N3962       N  0.82708970  0.05588169  0.87348060    -0.39900
N3963       N  0.69470313  0.94714780  0.78367010    -0.37700
N3964       N  0.75170143  0.00114946  0.73135346    -0.40000
N3965       N  0.78843596  0.60218735  0.83015350    -0.39800
N3966       N  0.85722821  0.63490784  0.78298131    -0.37500
N3967       N  0.89685617  0.97815747  0.73201463    -0.38500
N3968       N  0.81176355  0.94904229  0.76845901    -0.40200
C3969       C  0.89446089  0.75945015  0.78148839    -0.05100
C3970       C  0.91030413  0.74380567  0.75549611     0.09000
C3971       C  0.91000178  0.75850122  0.72513749    -0.02500
C3972       C  0.88981749  0.78532168  0.72087120    -0.00700
C3973       C  0.86383101  0.78872060  0.74180056    -0.04400
C3974       C  0.87002254  0.78208792  0.77447405     0.02700
C3975       C  0.91388950  0.70817451  0.75498816     0.09500
C3976       C  0.92062799  0.73965466  0.69738060     0.35400
C3977       C  0.84822388  0.79336541  0.79946605     0.38800
C3978       C  0.88652635  0.69088318  0.74523646    -0.04700
C3979       C  0.88980780  0.66206122  0.72726809     0.02400
C3980       C  0.92014686  0.64676538  0.72444895    -0.04300
C3981       C  0.94765561  0.66498678  0.73271918    -0.00600
C3982       C  0.94441188  0.69450213  0.74986940    -0.03100
C3983       C  0.85487272  0.70283746  0.75421676     0.36100
C3984       C  0.97810726  0.65592030  0.71835920     0.39700
C3985       C  0.86262716  0.65090844  0.70858306     0.38900
C3986       C  0.97172025  0.71073272  0.76371844     0.35800
C3987       C  0.89865837  0.74772797  0.81368086     0.36500
C3988       C  0.88820103  0.80272765  0.69149706     0.39700
N3989       N  0.84041087  0.64422283  0.69312017    -0.38300
N3990       N  0.83008830  0.71216118  0.76312190    -0.39900
N3991       N  0.00139186  0.64857340  0.70481133    -0.37700
N3992       N  0.99238109  0.72409267  0.77679711    -0.40000
N3993       N  0.92794959  0.72135098  0.67720629    -0.39800
N3994       N  0.88431268  0.81830874  0.66926467    -0.37500
N3995       N  0.83080651  0.80167807  0.81977532    -0.38500
N3996       N  0.90203020  0.73841998  0.83943283    -0.40200
C3997       C  0.96475503  0.57921916  0.83645686    -0.05100
C3998       C  0.97658604  0.61046697  0.83152183     0.09000
C3999       C  0.99592609  0.61493477  0.80389031    -0.02500
C4000       C  0.99813795  0.59003097  0.78037493    -0.00700
C4001       C  0.97400941  0.56667427  0.77978139    -0.04400
C4002       C  0.96226194  0.55744745  0.81001679     0.02700
C4003       C  0.96886329  0.63740378  0.85531810     0.09500
C4004       C  0.01271803  0.64460295  0.79859189     0.35400
C4005       C  0.94445624  0.52790406  0.81308758     0.38800
C4006       C  0.99385430  0.65451934  0.87061803    -0.04700
C4007       C  0.48611526  0.67684314  0.89397393     0.02400
C4008       C  0.95673212  0.67657362  0.91040047    -0.04300
C4009       C  0.93061451  0.66379833  0.89287347    -0.00600
C4010       C  0.93661005  0.64423355  0.86508328    -0.03100
C4011       C  0.52612927  0.64164739  0.86747538     0.36100
C4012       C  0.89830972  0.66742743  0.90557898     0.39700
C4013       C  0.51269235  0.69437672  0.90863263     0.38900
C4014       C  0.91001023  0.62730466  0.85013142     0.35800
C4015       C  0.95466424  0.56999997  0.86817829     0.36500
C4016       C  0.01928178  0.59250345  0.75300792     0.39700
N4017       N  0.53485389  0.70709383  0.91983549    -0.38300
N4018       N  0.55204101  0.63152851  0.86565166    -0.39900
N4019       N  0.87301108  0.68600251  0.41767444    -0.37700
N4020       N  0.88867037  0.61267933  0.83979561    -0.40000
N4021       N  0.02743772  0.66748872  0.79414548    -0.39800
N4022       N  0.03639563  0.59488773  0.73137347    -0.37500
N4023       N  0.93006124  0.50444710  0.81567761    -0.38500
N4024       N  0.94695987  0.56274243  0.89363872    -0.40200
C4025       C  0.86007145  0.89240742  0.96648956    -0.05100
C4026       C  0.87012499  0.88814159  0.93456627     0.09000
C4027       C  0.86824978  0.85691370  0.91964243    -0.02500
C4028       C  0.85963066  0.83018141  0.93775384    -0.00700
C4029       C  0.85309284  0.83414206  0.97073461    -0.04400
C4030       C  0.84890578  0.86619469  0.98349527     0.02700
C4031       C  0.87747526  0.91684016  0.91518632     0.09500
C4032       C  0.87445951  0.85188751  0.88557182     0.35400
C4033       C  0.83252925  0.87325566  0.01366314     0.38800
C4034       C  0.90510909  0.91580280  0.89577291    -0.04700
C4035       C  0.90163431  0.92165398  0.86276688     0.02400
C4036       C  0.87014680  0.92692815  0.85054150    -0.04300
C4037       C  0.84577224  0.93758676  0.87188008    -0.00600
C4038       C  0.85103155  0.93530414  0.90479377    -0.03100
C4039       C  0.93506097  0.90322189  0.90848769     0.36100
C4040       C  0.81370433  0.94490061  0.86036467     0.39700
C4041       C  0.92901087  0.91710434  0.84159302     0.38900
C4042       C  0.82919270  0.95104494  0.92728561     0.35800
C4043       C  0.86226061  0.92377663  0.98232218     0.36500
C4044       C  0.85464113  0.79916035  0.92190491     0.39700
N4045       N  0.95107897  0.91350322  0.82492645    -0.38300
N4046       N  0.95905571  0.89311116  0.91844179    -0.39900
N4047       N  0.78782418  0.94841423  0.85076600    -0.37700
N4048       N  0.81280918  0.96515940  0.94527826    -0.40000
N4049       N  0.87953772  0.84718914  0.85851038    -0.39800
N4050       N  0.84956452  0.77492897  0.90860453    -0.37500
N4051       N  0.81928314  0.87981694  0.03740253    -0.36500
N4052       N  0.86440441  0.94906732  0.99433673    -0.40200
C4053       C  0.55311371  0.78550370  0.96155797    -0.05100
C4054       C  0.53492652  0.76387188  0.97925332     0.09000
C4055       C  0.54964451  0.73555230  0.99067165    -0.02500
C4056       C  0.58060137  0.72692281  0.98046182    -0.00700
C4057       C  0.59584265  0.74480350  0.95669711    -0.04400
C4058       C  0.58382817  0.77605819  0.95016788     0.02700
C4059       C  0.49997574  0.76909158  0.98478985     0.09500
C4060       C  0.53223793  0.71367878  0.01076445     0.35400
C4061       C  0.60212823  0.79827049  0.93141915     0.38800
C4062       C  0.47759790  0.76278317  0.95973359    -0.04700
C4063       C  0.94751888  0.75916463  0.96779632     0.02400
C4064       C  0.93693069  0.75993272  0.00007449    -0.04300
C4065       C  0.45858308  0.76007311  0.02350688    -0.00600
C4066       C  0.48925185  0.77096464  0.01656289    -0.03100
C4067       C  0.99050198  0.76655566  0.92770263     0.36100
C4068       C  0.45559323  0.74172069  0.05205623     0.39700
C4069       C  0.92563557  0.75059128  0.94196095     0.38900
C4070       C  0.51032480  0.78224998  0.04232744     0.35800
C4071       C  0.53968730  0.81682313  0.95430060     0.36500
C4072       C  0.59552269  0.69783667  0.99213739     0.39700
N4073       N  0.90904066  0.74292879  0.92081368    -0.38300
N4074       N  0.99846127  0.76860351  0.90123772    -0.39900
N4075       N  0.45540565  0.72199523  0.57019579    -0.37700
N4076       N  0.52668597  0.79207670  0.06283740    -0.40000
N4077       N  0.51878282  0.69611899  0.02696150    -0.39800
N4078       N  0.60756392  0.67419971  0.00006813    -0.37500
N4079       N  0.61651555  0.81642717  0.91673206    -0.38500
N4080       N  0.52891925  0.84180310  0.94860405    -0.40200
C4081       C  0.45072253  0.94104094  0.56817017    -0.05100
C4082       C  0.41701102  0.94567604  0.57019846     0.09000
C4083       C  0.90398953  0.97499478  0.56626447    -0.02500
C4084       C  0.42468684  0.00295061  0.56169373    -0.00700
C4085       C  0.45731573  0.99664184  0.55437863    -0.04400
C4086       C  0.46876803  0.96457909  0.55393562     0.02700
C4087       C  0.89878378  0.91453418  0.56196159     0.09500
C4088       C  0.86946063  0.97969255  0.56547049     0.35400
C4089       C  0.49948700  0.95563795  0.53948964     0.38800
C4090       C  0.88192738  0.89797562  0.58558537    -0.04700
C4091       C  0.87630907  0.86468002  0.58112482     0.02400
C4092       C  0.89106614  0.84756889  0.55520761    -0.04300
C4093       C  0.90783207  0.86504343  0.53168094    -0.00600
C4094       C  0.90756331  0.89845876  0.53311141    -0.03100
C4095       C  0.87035372  0.91490423  0.61413465     0.36100
C4096       C  0.93138145  0.84195053  0.00842044     0.39700
C4097       C  0.85432849  0.84849170  0.60206894     0.38900
C4098       C  0.42040092  0.91807807  0.50747173     0.35800
C4099       C  0.46559182  0.90960859  0.57279928     0.36500
C4100       C  0.91235217  0.03403081  0.56395497     0.39700
N4101       N  0.83612148  0.83586457  0.61834358    -0.38300
N4102       N  0.86112021  0.92756264  0.63746439    -0.39900
N4103       N  0.94719368  0.83121641  0.98786959    -0.37700
N4104       N  0.43129284  0.93243134  0.48681337    -0.40000
N4105       N  0.84193770  0.98385000  0.56382767    -0.39800
N4106       N  0.90391523  0.56467885  0.56392037    -0.37500
N4107       N  0.52359043  0.94819215  0.52747928    -0.38500
N4108       N  0.47796076  0.88467739  0.57479915    -0.40200
C4109       C  0.56883046  0.76605947  0.79002872    -0.05100
C4110       C  0.56588028  0.76769402  0.75645275     0.09000
C4111       C  0.59377143  0.76923010  0.73757123    -0.02500
C4112       C  0.62434115  0.76705793  0.75160759    -0.00700
C4113       C  0.62747249  0.75901069  0.78462297    -0.04400
C4114       C  0.59948476  0.76167404  0.80404552     0.02700
C4115       C  0.53407604  0.76794751  0.73974696     0.09500
C4116       C  0.59098350  0.76895350  0.70284593     0.35400
C4117       C  0.60100294  0.76002687  0.83851184     0.38800
C4118       C  0.51473820  0.79578005  0.74081838    -0.04700
C4119       C  0.99156141  0.80039756  0.71765352     0.02400
C4120       C  0.99026987  0.77936856  0.69011127    -0.04300
C4121       C  0.00693957  0.74972144  0.69086276    -0.00600
C4122       C  0.02739541  0.74332589  0.71708296    -0.03100
C4123       C  0.51990861  0.82066701  0.76540248     0.36100
C4124       C  0.00532745  0.72690161  0.66395238     0.39700
C4125       C  0.96858148  0.82654359  0.72181781     0.38900
C4126       C  0.54261031  0.71197914  0.72019940     0.35800
C4127       C  0.54042835  0.76740152  0.81028586     0.36500
C4128       C  0.65184145  0.76975261  0.73039277     0.39700
N4129       N  0.94985012  0.84716601  0.72500241    -0.38300
N4130       N  0.52398590  0.84022637  0.78528297    -0.39900
N4131       N  0.00444185  0.70863062  0.64252178    -0.37700
N4132       N  0.55480465  0.68714920  0.72351701    -0.40000
N4133       N  0.58824657  0.76652010  0.67528073    -0.39800
N4134       N  0.67355059  0.77061178  0.71312415    -0.37500
N4135       N  0.59849750  0.75950965  0.86609106    -0.38500
N4136       N  0.01904560  0.76755656  0.82727133    -0.40200
C4137       C  0.62926597  0.61680393  0.81644860    -0.05100
C4138       C  0.65608949  0.59850000  0.80532650     0.09000
C4139       C  0.68740444  0.60860623  0.81317670    -0.02500
C4140       C  0.69129923  0.63692700  0.83171095    -0.00700
C4141       C  0.66572185  0.65942650  0.83199289    -0.04400
C4142       C  0.63404120  0.64798428  0.82911426     0.02700
C4143       C  0.65073459  0.56621978  0.79052615     0.09500
C4144       C  0.71475360  0.59122094  0.79977250     0.35400
C4145       C  0.60687015  0.66927415  0.83553595     0.38800
C4146       C  0.63204259  0.56326912  0.76223855    -0.04700
C4147       C  0.61090807  0.53722897  0.75897046     0.02400
C4148       C  0.60943636  0.51535389  0.78409765    -0.04300
C4149       C  0.63595495  0.51244711  0.80475371    -0.00600
C4150       C  0.65529947  0.53946192  0.81012309    -0.03100
C4151       C  0.62990093  0.58970521  0.74036473     0.36100
C4152       C  0.63723266  0.48494342  0.82512788     0.39700
C4153       C  0.08859898  0.53684113  0.73268577     0.38900
C4154       C  0.67396760  0.54350725  0.83932330     0.35800
C4155       C  0.59705102  0.60404456  0.81320509     0.36500
C4156       C  0.72265629  0.64681323  0.84346827     0.39700
N4157       N  0.07000629  0.53590277  0.71187491    -0.38300
N4158       N  0.62778348  0.61090371  0.72303447    -0.39900
N4159       N  0.63616753  0.46190679  0.83992474    -0.37700
N4160       N  0.68885387  0.55064194  0.86194037    -0.40000
N4161       N  0.73542626  0.57678101  0.78743004    -0.39800
N4162       N  0.74724889  0.65546644  0.85337767    -0.37500
N4163       N  0.58547126  0.68674060  0.84055648    -0.38500
N4164       N  0.57178124  0.59298110  0.81013823    -0.40200
C4165       C  0.65452281  0.68858613  0.69210176    -0.05100
C4166       C  0.68054645  0.68326018  0.67105699     0.09000
C4167       C  0.71176275  0.67766209  0.68370187    -0.02500
C4168       C  0.71783595  0.68476618  0.71645788    -0.00700
C4169       C  0.69208313  0.69377833  0.73649558    -0.04400
C4170       C  0.66020009  0.68996198  0.72497946     0.02700
C4171       C  0.67543530  0.68821988  0.63630051     0.09500
C4172       C  0.73732293  0.66543954  0.66306707     0.35400
C4173       C  0.63323504  0.68667194  0.74655751     0.38800
C4174       C  0.68948104  0.71510367  0.62195016    -0.04700
C4175       C  0.68330570  0.72104594  0.58941222     0.02400
C4176       C  0.66574899  0.69829115  0.57127980    -0.04300
C4177       C  0.64425692  0.67881905  0.58781785    -0.00600
C4178       C  0.65227326  0.67008689  0.61901774    -0.03100
C4179       C  0.71160307  0.73490966  0.64032989     0.36100
C4180       C  0.61622559  0.66511751  0.57208570     0.39700
C4181       C  0.69956900  0.74621124  0.57274783     0.38900
C4182       C  0.63658831  0.64292767  0.63322002     0.35800
C4183       C  0.62217933  0.69440964  0.68001992     0.36500
C4184       C  0.74983912  0.68191704  0.72971063     0.39700
N4185       N  0.71234649  0.76582274  0.55850864    -0.38300
N4186       N  0.72943977  0.74925468  0.65635253    -0.39900
N4187       N  0.59321479  0.65386049  0.56106665    -0.37700
N4188       N  0.62346734  0.62191576  0.64502400    -0.40000
N4189       N  0.75777838  0.65506027  0.64693065    -0.39800
N4190       N  0.77533119  0.67929250  0.74055832    -0.37500
N4191       N  0.61140308  0.68318819  0.76321792    -0.38500
N4192       N  0.59681992  0.69814556  0.66909387    -0.40200
loop_ 
_geom_bond_atom_site_label_1 
_geom_bond_atom_site_label_2 
_geom_bond_distance 
_geom_bond_site_symmetry_2 
_ccdc_geom_bond_type 
C1            N2   1.391       .  A
C1            N6   1.352       .  A
C1          C120   1.511       .  S
N2            C3   1.394       .  A
C3            N4   1.345       .  A
C3           C90   1.499   1_554  S
N4            C5   1.336       .  A
C5            N6   1.348       .  A
C5          C508   1.470       .  S
C7            N8   1.350       .  A
C7           N12   1.397       .  A
C7           C87   1.531       .  S
N8            C9   1.355       .  A
C9           N10   1.338       .  A
C9          C480   1.471       .  S
N10        C2107   1.347       .  A
C11        N2106   1.347       .  A
C11        N2108   1.401       .  A
C11         C187   1.506   1_545  S
N12        C2107   1.401       .  A
C13          N14   1.396       .  A
C13          N18   1.345       .  A
C13         C182   1.527       .  S
N14          C15   1.403       .  A
C15          N16   1.359       .  A
C15         C139   1.535       .  S
N16          C17   1.350       .  A
C17          N18   1.340       .  A
C17         C452   1.484       .  S
C19          N20   1.363       .  A
C19          N24   1.354       .  A
C19         C445   1.505       .  S
N20          C21   1.367       .  A
C21          N22   1.351       .  A
C21         C473   1.470       .  S
N22          C23   1.332       .  A
C23          N24   1.349       .  A
C23         C501   1.472       .  S
O25          C41   1.277       .  A
O25         Zn31   1.997       .  S
C26          C60   1.545       .  S
C26          O42   1.283       .  A
C26          O39   1.292       .  A
O27          C40   1.284       .  A
O27         Cd34   2.191       .  S
O28          C46   1.299       .  A
O28         Cd37   2.176       .  S
O29          C43   1.296       .  A
O29         Cd33   2.162       .  S
O30          C41   1.275       .  A
O30         Cd33   2.184       .  S
Zn31         O42   2.053       .  S
Zn31         O44   2.045       .  S
Zn31         O36   1.872       .  S
O32          C43   1.275       .  A
O32         Cd37   2.092       .  S
Cd33         O35   2.103       .  S
Cd33         O36   2.075       .  S
Cd34         O38   2.193       .  S
Cd34         O47   2.177       .  S
Cd34         O36   2.051       .  S
O35          C45   1.281       .  A
O36         Cd37   2.033       .  S
Cd37         O39   2.254       .  S
O38          C45   1.301       .  A
C40         C107   1.516       .  S
C40          O44   1.282       .  A
C41         C154   1.515       .  S
C43         C105   1.482       .  S
C45          C58   1.518       .  S
C46         C150   1.528       .  S
C46          O47   1.289       .  A
C48          N53   1.393       .  A
C48        N1097   1.347   1_455  A
C48         C167   1.517   1_545  S
N49          C50   1.345       .  A
N49        C1096   1.347   1_655  A
C50          N51   1.356   1_655  A
C50         C417   1.465       .  S
N51        C1100   1.359       .  A
C52          N53   1.397       .  A
C52        N1099   1.356       .  A
C52          C92   1.513       .  S
C54          N55   1.348       .  A
C54          N59   1.391       .  A
C54          C73   1.531       .  S
N55          C56   1.351       .  A
C56          N57   1.346       .  A
C56         C389   1.493       .  S
N57          C58   1.353       .  A
C58          N59   1.396       .  A
C60          N61   1.348       .  A
C60          N65   1.403       .  A
N61          C62   1.344       .  A
C62          N63   1.337       .  A
C62         C368   1.471       .  S
N63          C64   1.352       .  A
C64          N65   1.411       .  A
C64         C186   1.516       .  S
C66          N67   1.370       .  A
C66          N71   1.348       .  A
C66         C361   1.501       .  S
N67          C68   1.367       .  A
C68         N593   1.361       .  A
C68         C396   1.496       .  S
N69          C70   1.353       .  A
N69         C592   1.360       .  A
C70         N595   1.341       .  A
C70         C424   1.476       .  S
N71         C594   1.342       .  A
O72         C612   1.286       .  A
O72         Zn78   2.059       .  S
C73          O89   1.285       .  A
C73          O86   1.284       .  A
O74          C87   1.291       .  A
O74         Cd81   2.201       .  S
O75        C1141   1.292       .  A
O75         Cd84   2.117       .  S
O76          C90   1.294   1_554  A
O76         Cd80   2.137   1_554  S
O77          C88   1.286   1_554  A
O77         Cd80   2.206   1_554  S
Zn78         O89   2.107       .  S
Zn78         O91   2.126       .  S
Zn78         O83   1.907       .  S
O79          C90   1.273       .  A
O79        Cd608   2.105       .  S
Cd80         O82   2.100   1_556  S
Cd80        O607   2.025       .  S
Cd81       O1657   2.215       .  S
Cd81       O1142   2.156   1_545  S
Cd81         O83   2.038       .  S
O82          C92   1.274       .  A
O83         Cd84   2.052       .  S
O83        Cd604   2.022       .  S
Cd84         O86   2.191       .  S
Cd84        O603   2.100       .  S
O85        C1140   1.303   1_556  A
O85       Cd1653   2.225       .  S
C87          O91   1.289       .  A
C88          C95   1.526   1_455  S
C88         O596   1.287       .  A
C92        O1133   1.303   1_554  A
C93         C109   1.515       .  S
C93          O94   1.284       .  A
C93        O1123   1.295       .  A
O94       Cd1129   2.166       .  S
C95          N96   1.393   1_556  A
C95         N624   1.334       .  A
N96          C97   1.406   1_554  A
C97        N2718   1.367       .  A
C97        C2236   1.519   1_556  S
N98        C2717   1.367       .  A
N98        C2195   1.356       .  A
C99         N100   1.340       .  A
C99        N2194   1.356       .  A
C99        C2436   1.487       .  S
N100        C619   1.335       .  A
C101        N102   1.357       .  A
C101        N106   1.384       .  A
C101        C135   1.522       .  S
N102        C103   1.364       .  A
C103        N104   1.343       .  A
C103        C305   1.495       .  S
N104        C105   1.350       .  A
C105        N106   1.387       .  A
C107        N108   1.397       .  A
C107        N112   1.355       .  A
N108        C109   1.398       .  A
C109        N110   1.348       .  A
N110        C111   1.335       .  A
C111        N112   1.343       .  A
C111        C284   1.467       .  S
C113        N114   1.354       .  A
C113        N118   1.354       .  A
C113        C312   1.495       .  S
N114        C115   1.354       .  A
C115        N116   1.350       .  A
C115        C277   1.462       .  S
N116        C117   1.347       .  A
C117        N118   1.358       .  A
C117        C333   1.488       .  S
O119        C135   1.285       .  A
O119       Zn125   2.138       .  S
C120        O136   1.288       .  A
C120        O133   1.287       .  A
O121        C134   1.291       .  A
O121       Cd128   2.236       .  S
O122        C140   1.297       .  A
O122       Cd131   2.175       .  S
O123        C661   1.296       .  A
O123       Cd127   2.172       .  S
O124        C135   1.285       .  A
O124       Cd127   2.147       .  S
Zn125       O136   2.070       .  S
Zn125       O138   2.061       .  S
Zn125       O130   1.940       .  S
O126        C137   1.282       .  A
O126       Cd655   2.154       .  S
Cd127       O129   2.121       .  S
Cd127       O130   2.046       .  S
Cd128       O132   2.223       .  S
Cd128       O141   2.139       .  S
Cd128       O130   2.053       .  S
O129        C139   1.278       .  A
O130       Cd131   2.056       .  S
Cd131       O133   2.177       .  S
Cd131       O650   2.152       .  S
O132        C139   1.303       .  A
C134        C142   1.542       .  S
C134        O138   1.285       .  A
C137        C158   1.527       .  S
C137        O647   1.295       .  A
C140       C2193   1.517   1_554  S
C140        O141   1.281       .  A
C142        N143   1.395       .  A
C142        N147   1.353       .  A
N143        C144   1.403       .  A
C144        N145   1.368       .  A
C144        C184   1.536       .  S
N145        C146   1.360       .  A
C146        N147   1.347       .  A
C146        C256   1.490       .  S
C148        N149   1.404       .  A
C148        N153   1.363       .  A
C148       C2277   1.543       .  S
N149        C150   1.401       .  A
C150        N151   1.346       .  A
N151        C152   1.341       .  A
C152        N153   1.354       .  A
C152        C221   1.494       .  S
C154        N155   1.334       .  A
C154        N159   1.388       .  A
N155        C156   1.329       .  A
C156        N157   1.361       .  A
C156        C193   1.491       .  S
N157        C158   1.373       .  A
C158        N159   1.403       .  A
C160        N161   1.346       .  A
C160        N165   1.359       .  A
C160        C200   1.492       .  S
N161        C162   1.339       .  A
C162       N1211   1.356       .  A
C162        C228   1.483       .  S
N163        C164   1.364   1_565  A
N163       C1210   1.357       .  A
C164       N1213   1.366       .  A
C164        C249   1.502       .  S
N165       C1212   1.369       .  A
O166        C182   1.288       .  A
O166       Zn172   2.086       .  S
C167       O3327   1.289       .  A
C167       O2276   1.285   1_565  A
O168        C181   1.293       .  A
O168       Cd175   2.226       .  S
O169        C187   1.295   1_545  A
O169       Cd178   2.172   1_545  S
O170        C184   1.303   1_565  A
O170      Cd1222   2.219       .  S
O171        C182   1.285       .  A
O171       Cd174   2.196       .  S
Zn172       O183   2.154       .  S
Zn172       O185   2.100       .  S
Zn172       O177   1.967       .  S
O173        C184   1.288       .  A
O173       Cd178   2.162   1_545  S
Cd174       O176   2.144       .  S
Cd174      O1218   2.227       .  S
Cd174       O177   2.087       .  S
Cd175       O179   2.184       .  S
Cd175      O1236   2.138       .  S
Cd175       O177   2.062       .  S
O176        C186   1.281       .  A
O177      Cd1226   2.042       .  S
Cd178       O180   2.155   1_565  S
Cd178      O1225   2.044       .  S
O179        C186   1.300       .  A
O180       C2263   1.285   1_545  A
C181       C2244   1.544       .  S
C181        O185   1.288       .  A
O183       C3311   1.292       .  A
C187        O188   1.279       .  A
O188      Cd1223   2.131       .  S
C189        C190   1.403       .  A
C189        C194   1.410       .  A
C189        C731   1.439       .  S
C190        C195   1.488       .  S
C190        C191   1.389       .  A
C191        C192   1.399       .  A
C191        C196   1.438       .  S
C192        C193   1.429       .  A
C192        C208   1.452       .  S
C193        C194   1.408       .  A
C194        C197   1.436       .  S
C195        C202   1.409       .  A
C195        C722   1.406       .  A
C196        N213   1.152       .  T
C197        N215   1.153       .  T
C198        C199   1.412       .  A
C198        C719   1.407   1_554  A
C198        C203   1.449       .  S
C199        C200   1.417       .  A
C199        C205   1.447       .  S
C200        C201   1.419   1_554  A
C201        C726   1.406       .  A
C201        C204   1.454       .  S
C202        C725   1.406       .  A
C202        C206   1.451       .  S
C203        N210   1.157       .  T
C204        N211   1.157       .  T
C205        N209   1.156       .  T
C206        N212   1.157       .  T
C207        C713   1.440       .  S
C207        N216   1.154       .  T
C208        N214   1.155       .  T
C217        C218   1.402       .  A
C217        C222   1.405       .  A
C217        C235   1.444       .  S
C218        C223   1.516       .  S
C218        C219   1.396       .  A
C219        C220   1.415       .  A
C219        C224   1.446       .  S
C220        C221   1.437       .  A
C220        C236   1.450       .  S
C221        C222   1.424       .  A
C222        C225   1.448       .  S
C223        C226   1.423       .  A
C223        C230   1.409       .  A
C224        N241   1.157       .  T
C225        N243   1.157       .  T
C226        C227   1.406       .  A
C226        C231   1.455       .  S
C227        C228   1.418       .  A
C227       C1281   1.451       .  S
C228        C229   1.417       .  A
C229        C230   1.405       .  A
C229        C232   1.448       .  S
C230        C234   1.450       .  S
C231        N238   1.159       .  T
C232        N239   1.155       .  T
C233       C1275   1.452       .  S
C233        N237   1.156       .  T
C234        N240   1.157       .  T
C235        N244   1.157       .  T
C236        N242   1.157       .  T
C245        C246   1.407       .  A
C245        C250   1.407       .  A
C245        C263   1.450       .  S
C246        C251   1.492       .  S
C246        C247   1.410       .  A
C247        C248   1.412       .  A
C247        C252   1.447       .  S
C248        C249   1.415       .  A
C248        C264   1.450   1_545  S
C249        C250   1.410       .  A
C250        C253   1.442       .  S
C251        C254   1.403       .  A
C251        C258   1.411       .  A
C252        N269   1.156   1_545  T
C253       N1319   1.154       .  T
C254        C255   1.413       .  A
C254        C259   1.450       .  S
C255        C256   1.421       .  A
C255        C261   1.443       .  S
C256        C257   1.409       .  A
C257        C258   1.407       .  A
C257        C260   1.444   1_545  S
C258        C262   1.449       .  S
C259        N266   1.156       .  T
C260        N267   1.154       .  T
C261        N265   1.155       .  T
C262        N268   1.156   1_545  T
C263        N272   1.157       .  T
C264        N270   1.157       .  T
N271       C1301   1.152       .  T
C273        C274   1.412       .  A
C273        C278   1.402       .  A
C273        C291   1.445       .  S
C274        C279   1.484       .  S
C274       C1323   1.406       .  A
C275        C276   1.398       .  A
C275       C1322   1.408       .  A
C275        C280   1.452       .  S
C276        C277   1.413       .  A
C276        C292   1.449       .  S
C277       C1326   1.403       .  A
C278       C1325   1.406       .  A
C278        C281   1.448       .  S
C279        C282   1.413       .  A
C279        C286   1.411       .  A
C280        N297   1.157       .  T
C281        N299   1.155       .  T
C282        C283   1.402       .  A
C282        C287   1.453       .  S
C283        C284   1.412       .  A
C283        C289   1.450       .  S
C284        C285   1.410       .  A
C285        C286   1.401       .  A
C285        C288   1.451       .  S
C286        C290   1.450       .  S
C287        N294   1.157       .  T
C288        N295   1.157       .  T
C289        N293   1.158       .  T
C290        N296   1.157       .  T
C291        N300   1.155       .  T
C292        N298   1.155       .  T
C301        C302   1.407       .  A
C301        C306   1.412       .  A
C301        C319   1.447       .  S
C302        C307   1.487       .  S
C302        C303   1.416       .  A
C303        C304   1.404       .  A
C303        C308   1.445       .  S
C304        C305   1.396       .  A
C304        C320   1.441       .  S
C305        C306   1.415       .  A
C306        C309   1.447       .  S
C307        C310   1.404       .  A
C307        C314   1.397       .  A
C308        N325   1.156       .  T
C309        N327   1.157       .  T
C310        C311   1.399       .  A
C310        C315   1.445       .  S
C311        C312   1.410       .  A
C311        C317   1.442       .  S
C312        C313   1.412       .  A
C313        C314   1.408       .  A
C313        C316   1.442       .  S
C314        C318   1.433       .  S
C315        N322   1.154       .  T
C316        N323   1.158       .  T
C317        N321   1.152       .  T
C318        N324   1.152       .  T
C319        N328   1.158       .  T
C320        N326   1.155       .  T
C329        C330   1.417       .  A
C329        C334   1.411       .  A
C329        C347   1.451       .  S
C330        C335   1.507       .  S
C330        C331   1.423       .  A
C331        C332   1.404       .  A
C331        C336   1.445       .  S
C332        C333   1.398       .  A
C332        C348   1.448       .  S
C333        C334   1.416       .  A
C334        C337   1.450       .  S
C335        C338   1.409       .  A
C335        C342   1.425       .  A
C336        N353   1.156       .  T
C337        N355   1.158       .  T
C338       C2435   1.402       .  A
C338       C2439   1.441       .  S
C339       C2434   1.402       .  A
C339       C2436   1.411       .  A
C339        C345   1.449   1_655  S
C340       C2195   1.487       .  S
C340        C341   1.403       .  A
C340       C2435   1.411       .  A
C341        C342   1.416       .  A
C341        C344   1.448       .  S
C342        C346   1.446       .  S
C343       C2434   1.442   1_455  S
C343        N350   1.153       .  T
C344        N875   1.157       .  T
C345        N349   1.156       .  T
C346        N352   1.156       .  T
C347        N356   1.156       .  T
C348        N354   1.156       .  T
N351        C868   1.157       .  T
C357        C358   1.410       .  A
C357        C362   1.407       .  A
C357        C375   1.450       .  S
C358        C363   1.501       .  S
C358        C359   1.428       .  A
C359        C360   1.408       .  A
C359        C364   1.450       .  S
C360        C361   1.400       .  A
C360        C376   1.449       .  S
C361        C362   1.429       .  A
C362        C365   1.454       .  S
C363        C366   1.413       .  A
C363        C370   1.403       .  A
C364        N381   1.157       .  T
C365        N383   1.157       .  T
C366        C367   1.412       .  A
C366        C371   1.447       .  S
C367        C368   1.414       .  A
C367        C373   1.449       .  S
C368        C369   1.410       .  A
C369        C370   1.390       .  A
C369        C372   1.444       .  S
C370        C374   1.441       .  S
C371        N378   1.157       .  T
C372        N379   1.154       .  T
C373        N377   1.157       .  T
C374        N380   1.157       .  T
C375        N384   1.157       .  T
C376        N382   1.157       .  T
C385        C386   1.407       .  A
C385        C390   1.410       .  A
C385        C403   1.450       .  S
C386        C391   1.486       .  S
C386        C387   1.414       .  A
C387        C388   1.397       .  A
C387        C392   1.453       .  S
C388        C389   1.414       .  A
C388        C404   1.449       .  S
C389        C390   1.422       .  A
C390        C393   1.450       .  S
C391        C394   1.414   1_455  A
C391        C398   1.399   1_455  A
C392        N409   1.156       .  T
C393        N411   1.157       .  T
C394       C2491   1.414       .  A
C394       C2495   1.451       .  S
C395        C396   1.417       .  A
C395       C2490   1.414       .  A
C395        C401   1.444       .  S
C396       C2493   1.406       .  A
C397        C398   1.391       .  A
C397       C2492   1.407       .  A
C397        C400   1.437       .  S
C398        C402   1.450   1_655  S
C399       C2490   1.451       .  S
C399        N406   1.157       .  T
C400        N931   1.155       .  T
C401        N405   1.156       .  T
C402        N408   1.156       .  T
C403        N412   1.158       .  T
C404        N410   1.155       .  T
N407        C924   1.154       .  T
C413        C414   1.408       .  A
C413        C418   1.385       .  A
C413        C431   1.456       .  S
C414       C2515   1.483       .  S
C414       C2511   1.416       .  A
C415       C2510   1.416       .  A
C415       C2512   1.415       .  A
C415        C420   1.446       .  S
C416        C417   1.413       .  A
C416       C2511   1.415       .  A
C416       C2528   1.448       .  S
C417        C418   1.412       .  A
C418        C421   1.450   1_655  S
C419       C2510   1.483       .  S
C419        C422   1.411       .  A
C419        C426   1.407       .  A
C420        N437   1.157       .  T
C421        N439   1.155       .  T
C422        C423   1.416       .  A
C422        C427   1.447       .  S
C423        C424   1.415       .  A
C423        C429   1.449       .  S
C424        C425   1.423       .  A
C425        C426   1.389       .  A
C425        C952   1.450       .  S
C426       C2526   1.463       .  S
C427        N434   1.157       .  T
C428        C949   1.449       .  S
C428        N435   1.156       .  T
C429        N433   1.157       .  T
C430       C2522   1.462       .  S
C430        N436   1.158   1_554  T
C431        N440   1.157       .  T
C432       C2512   1.449       .  S
C432       N1486   1.157       .  T
N438       C1480   1.158       .  T
C441        C442   1.411       .  A
C441        C446   1.412       .  A
C441        C459   1.452       .  S
C442        C447   1.490       .  S
C442        C443   1.406       .  A
C443        C444   1.397       .  A
C443        C448   1.453       .  S
C444        C445   1.429       .  A
C444        C460   1.452       .  S
C445        C446   1.419       .  A
C446        C449   1.444       .  S
C447        C450   1.402       .  A
C447       C2550   1.415       .  A
C448        N465   1.155       .  T
C449        N467   1.156       .  T
C450       C2547   1.399   1_455  A
C450        C455   1.452       .  S
C451        C452   1.421       .  A
C451       C2546   1.399       .  A
C451        C457   1.448       .  S
C452        C453   1.409       .  A
C453        C454   1.408       .  A
C453        C456   1.450       .  S
C454       C2543   1.415       .  A
C454       C2554   1.446       .  S
C455        N462   1.156       .  T
C456        N463   1.156       .  T
C457        N461   1.157       .  T
C458       C2550   1.447       .  S
C458        N464   1.157       .  T
C459       N2564   1.157       .  T
C460        N466   1.155       .  T
N468       C2555   1.157       .  T
C469        C470   1.415       .  A
C469        C474   1.402       .  A
C469        C487   1.444       .  S
C470        C475   1.480       .  S
C470        C471   1.405       .  A
C471        C472   1.399       .  A
C471        C476   1.445       .  S
C472        C473   1.408       .  A
C472        C488   1.448       .  S
C473        C474   1.405       .  A
C474        C477   1.448       .  S
C475        C478   1.411       .  A
C475        C482   1.411       .  A
C476        N493   1.156       .  T
C477        N495   1.157       .  T
C478        C479   1.405       .  A
C478        C483   1.448       .  S
C479        C480   1.407       .  A
C479       C2581   1.448       .  S
C480        C481   1.398       .  A
C481        C482   1.399       .  A
C481        C484   1.444   1_545  S
C482        C486   1.446       .  S
C483        N490   1.157       .  T
C484        N491   1.155       .  T
C485       C2575   1.448       .  S
C485        N489   1.158       .  T
C486        N492   1.156       .  T
C487        N496   1.154       .  T
C488        N494   1.156       .  T
C497        C498   1.403       .  A
C497        C502   1.386       .  A
C497        C515   1.452       .  S
C498        C503   1.477       .  S
C498        C499   1.413       .  A
C499        C500   1.409       .  A
C499        C504   1.447       .  S
C500        C501   1.401       .  A
C500        C516   1.441       .  S
C501        C502   1.418       .  A
C502        C505   1.448       .  S
C503        C506   1.415       .  A
C503        C510   1.410       .  A
C504        N521   1.157       .  T
C505        N523   1.156       .  T
C506        C507   1.405       .  A
C506        C511   1.444       .  S
C507        C508   1.403       .  A
C507        C513   1.449       .  S
C508        C509   1.407       .  A
C509        C510   1.394       .  A
C509        C512   1.448       .  S
C510        C514   1.452       .  S
C511        N518   1.155       .  T
C512        N519   1.157       .  T
C513        N517   1.157       .  T
C514        N520   1.156       .  T
C515        N524   1.156       .  T
C516        N522   1.156       .  T
C525        N526   1.392       .  A
C525        N530   1.354       .  A
C525        C644   1.516       .  S
N526        C527   1.394       .  A
C527        N528   1.343       .  A
C527        C614   1.497       .  S
N528        C529   1.335       .  A
C529        N530   1.352       .  A
C529       C1032   1.469       .  S
C531        N532   1.353       .  A
C531        N536   1.397       .  A
C531        C611   1.531       .  S
N532        C533   1.355       .  A
C533        N534   1.337       .  A
C533       C1004   1.471       .  S
N534       C2631   1.347       .  A
C535       N2630   1.346       .  A
C535       N2632   1.400       .  A
C535        C711   1.504   1_545  S
N536       C2631   1.399       .  A
C537        N538   1.395       .  A
C537        N542   1.348       .  A
C537        C706   1.524       .  S
N538        C539   1.399       .  A
C539        N540   1.361       .  A
C539        C663   1.533       .  S
N540        C541   1.349       .  A
C541        N542   1.339       .  A
C541        C976   1.488       .  S
C543        N544   1.363       .  A
C543        N548   1.356       .  A
C543        C969   1.507       .  S
N544        C545   1.365       .  A
C545        N546   1.351       .  A
C545        C997   1.469       .  S
N546        C547   1.330       .  A
C547        N548   1.350       .  A
C547       C1025   1.472       .  S
O549        C565   1.277       .  A
O549       Zn555   1.988       .  S
C550        C584   1.545       .  S
C550        O566   1.283       .  A
C550        O563   1.291       .  A
O551        C564   1.282       .  A
O551       Cd558   2.178       .  S
O552        C570   1.299       .  A
O552       Cd561   2.173       .  S
O553        C567   1.298       .  A
O553       Cd557   2.177       .  S
O554        C565   1.278       .  A
O554       Cd557   2.199       .  S
Zn555       O566   2.060       .  S
Zn555       O568   2.028       .  S
Zn555       O560   1.877       .  S
O556        C567   1.276       .  A
O556       Cd561   2.096       .  S
Cd557       O559   2.112       .  S
Cd557       O560   2.073       .  S
Cd558       O562   2.182       .  S
Cd558       O571   2.175       .  S
Cd558       O560   2.057       .  S
O559        C569   1.282       .  A
O560       Cd561   2.036       .  S
Cd561       O563   2.249       .  S
O562        C569   1.300       .  A
C564        C631   1.506       .  S
C564        O568   1.281       .  A
C565        C678   1.519       .  S
C567        C629   1.488       .  S
C569        C582   1.517       .  S
C570        C674   1.526       .  S
C570        O571   1.288       .  A
C572       N1621   1.345   1_455  A
C572        N577   1.392       .  A
C572        C691   1.513   1_545  S
N573       C1620   1.346   1_655  A
N573        C574   1.345       .  A
C574        N575   1.353   1_655  A
C574        C941   1.461       .  S
N575       C1624   1.357       .  A
C576       N1623   1.357       .  A
C576        N577   1.395       .  A
C576        C616   1.511       .  S
C578        N579   1.348       .  A
C578        N583   1.391       .  A
C578        C597   1.536       .  S
N579        C580   1.353       .  A
C580        N581   1.346       .  A
C580        C913   1.492       .  S
N581        C582   1.355       .  A
C582        N583   1.397       .  A
C584        N585   1.353       .  A
C584        N589   1.405       .  A
N585        C586   1.347       .  A
C586        N587   1.330       .  A
C586        C892   1.469       .  S
N587        C588   1.343       .  A
C588        N589   1.409       .  A
C588        C710   1.512       .  S
C590        N591   1.367       .  A
C590        N595   1.346   1_556  A
C590        C885   1.499       .  S
N591        C592   1.368   1_556  A
C592        C920   1.496   1_554  S
N593        C594   1.353       .  A
C594        C948   1.477       .  S
O596       Zn602   2.060       .  S
C597        O613   1.285       .  A
C597        O610   1.287       .  A
O598        C611   1.291       .  A
O598       Cd605   2.200       .  S
O599       C1665   1.296       .  A
O599       Cd608   2.132       .  S
O600        C614   1.294       .  A
O600       Cd604   2.138       .  S
O601        C612   1.286       .  A
O601       Cd604   2.205       .  S
Zn602       O613   2.109       .  S
Zn602       O615   2.128       .  S
Zn602       O607   1.910       .  S
O603        C614   1.272       .  A
Cd604       O606   2.099       .  S
Cd605      O1133   2.218       .  S
Cd605      O1666   2.161   1_545  S
Cd605       O607   2.039       .  S
O606        C616   1.275       .  A
O607       Cd608   2.050       .  S
Cd608       O610   2.205       .  S
O609       C1664   1.303       .  A
O609      Cd1129   2.221       .  S
C611        O615   1.290       .  A
C612        C619   1.525   1_455  S
C616       O1657   1.302       .  A
C617        C633   1.512       .  S
C617       O1647   1.292       .  A
C617        O618   1.286       .  A
O618      Cd1653   2.165       .  S
C619        N620   1.393       .  A
N620        C621   1.405       .  A
C621       N2194   1.367       .  A
C621       C2760   1.524       .  S
N622       C2193   1.368       .  A
N622       C2719   1.351       .  A
C623       N2718   1.353       .  A
C623        N624   1.338       .  A
C623       C2960   1.486       .  S
C625        N626   1.359       .  A
C625        N630   1.387       .  A
C625        C659   1.524       .  S
N626        C627   1.363       .  A
C627        N628   1.343       .  A
C627        C829   1.494       .  S
N628        C629   1.349       .  A
C629        N630   1.389       .  A
C631        N632   1.395       .  A
C631        N636   1.353       .  A
N632        C633   1.395       .  A
C633        N634   1.352       .  A
N634        C635   1.338       .  A
C635        N636   1.338       .  A
C635        C808   1.469       .  S
C637        N638   1.355       .  A
C637        N642   1.357       .  A
C637        C836   1.495       .  S
N638        C639   1.354       .  A
C639        N640   1.350       .  A
C639        C801   1.466       .  S
N640        C641   1.348       .  A
C641        N642   1.359       .  A
C641        C857   1.490       .  S
O643        C659   1.286       .  A
O643       Zn649   2.142       .  S
C644        O660   1.288       .  A
C644        O657   1.290       .  A
O645        C658   1.294       .  A
O645       Cd652   2.246       .  S
O646        C664   1.301       .  A
O646       Cd655   2.202       .  S
O647       Cd651   2.171       .  S
O648        C659   1.285       .  A
O648       Cd651   2.149       .  S
Zn649       O660   2.069       .  S
Zn649       O662   2.067       .  S
Zn649       O654   1.949       .  S
O650        C661   1.282       .  A
Cd651       O653   2.121       .  S
Cd651       O654   2.048       .  S
Cd652       O656   2.216       .  S
Cd652       O665   2.138       .  S
Cd652       O654   2.053       .  S
O653        C663   1.281       .  A
O654       Cd655   2.058       .  S
Cd655       O657   2.189       .  S
O656        C663   1.301       .  A
C658        C666   1.547       .  S
C658        O662   1.285       .  A
C661        C682   1.527   1_554  S
C664       C2717   1.524       .  S
C664        O665   1.281       .  A
C666        N667   1.395       .  A
C666        N671   1.357       .  A
N667        C668   1.403       .  A
C668        N669   1.371       .  A
C668        C708   1.542       .  S
N669        C670   1.363       .  A
C670        N671   1.349       .  A
C670        C780   1.502       .  S
C672        N673   1.404       .  A
C672        N677   1.362       .  A
C672       C2801   1.536       .  S
N673        C674   1.400       .  A
C674        N675   1.343       .  A
N675        C676   1.339       .  A
C676        N677   1.351       .  A
C676        C745   1.491       .  S
C678        N679   1.335       .  A
C678        N683   1.390       .  A
N679        C680   1.328       .  A
C680        N681   1.359       .  A
C680        C717   1.493       .  S
N681        C682   1.372       .  A
C682        N683   1.404       .  A
C684        N685   1.348       .  A
C684        N689   1.357       .  A
C684        C724   1.487       .  S
N685        C686   1.342       .  A
C686       N1735   1.357       .  A
C686        C752   1.483       .  S
N687       C1734   1.357       .  A
N687        C688   1.363   1_565  A
C688       N1737   1.369       .  A
C688        C773   1.502       .  S
N689       C1736   1.367       .  A
O690        C706   1.286       .  A
O690       Zn696   2.077       .  S
C691       O3851   1.289       .  A
C691       O2800   1.285   1_565  A
O692        C705   1.290       .  A
O692       Cd699   2.212       .  S
O693        C711   1.294   1_545  A
O693       Cd702   2.164   1_545  S
O694        C708   1.303   1_565  A
O694      Cd1746   2.235       .  S
O695        C706   1.286       .  A
O695       Cd698   2.196       .  S
Zn696       O707   2.136       .  S
Zn696       O709   2.086       .  S
Zn696       O701   1.967       .  S
O697        C708   1.288       .  A
O697       Cd702   2.168   1_545  S
Cd698      O1742   2.230       .  S
Cd698       O700   2.148       .  S
Cd698       O701   2.084       .  S
Cd699       O703   2.179       .  S
Cd699      O1760   2.144       .  S
Cd699       O701   2.063       .  S
O700        C710   1.280       .  A
O701      Cd1750   2.041       .  S
Cd702       O704   2.147   1_565  S
Cd702      O1749   2.042       .  S
O703        C710   1.300       .  A
O704       C2787   1.285   1_545  A
C705       C2768   1.534       .  S
C705        O709   1.287       .  A
O707       C3835   1.288       .  A
C711        O712   1.280       .  A
O712      Cd1747   2.133       .  S
C713        C714   1.406   1_554  A
C713        C718   1.412       .  A
C714        C719   1.490       .  S
C714        C715   1.392       .  A
C715        C716   1.400       .  A
C715        C720   1.439       .  S
C716        C717   1.429       .  A
C716        C732   1.453       .  S
C717        C718   1.410   1_556  A
C718        C721   1.442       .  S
C719        C726   1.409       .  A
C720        N737   1.152       .  T
C721        N739   1.155       .  T
C722        C723   1.411       .  A
C722        C727   1.449       .  S
C723        C724   1.416       .  A
C723        C729   1.446       .  S
C724        C725   1.415       .  A
C725        C728   1.452       .  S
C726        C730   1.453       .  S
C727        N734   1.158       .  T
C728        N735   1.158       .  T
C729        N733   1.157       .  T
C730        N736   1.156       .  T
C731        N740   1.151       .  T
C732        N738   1.157       .  T
C741        C742   1.400       .  A
C741        C746   1.404       .  A
C741        C759   1.444       .  S
C742        C747   1.520       .  S
C742        C743   1.399       .  A
C743        C744   1.416       .  A
C743        C748   1.447       .  S
C744        C745   1.439       .  A
C744        C760   1.452       .  S
C745        C746   1.427       .  A
C746        C749   1.448       .  S
C747        C750   1.422       .  A
C747        C754   1.413       .  A
C748        N765   1.158       .  T
C749        N767   1.158       .  T
C750        C751   1.404       .  A
C750        C755   1.456       .  S
C751        C752   1.415       .  A
C751       C1805   1.451       .  S
C752        C753   1.417       .  A
C753        C754   1.409       .  A
C753        C756   1.449       .  S
C754        C758   1.450       .  S
C755        N762   1.158       .  T
C756        N763   1.156       .  T
C757       C1799   1.447       .  S
C757        N761   1.154       .  T
C758        N764   1.158       .  T
C759        N768   1.157       .  T
C760        N766   1.156       .  T
C769        C770   1.411       .  A
C769        C774   1.407       .  A
C769        C787   1.449       .  S
C770        C775   1.496       .  S
C770        C771   1.412       .  A
C771        C772   1.414       .  A
C771        C776   1.448       .  S
C772        C773   1.414       .  A
C772        C788   1.451   1_545  S
C773        C774   1.406       .  A
C774        C777   1.441       .  S
C775        C778   1.402       .  A
C775        C782   1.411       .  A
C776        N793   1.156   1_545  T
C777       N1843   1.154       .  T
C778        C779   1.415       .  A
C778        C783   1.451       .  S
C779        C780   1.423       .  A
C779        C785   1.441       .  S
C780        C781   1.412       .  A
C781        C782   1.412       .  A
C781        C784   1.444   1_545  S
C782        C786   1.449   1_545  S
C783        N790   1.157       .  T
C784        N791   1.155       .  T
C785        N789   1.155       .  T
C786        N792   1.155       .  T
C787        N796   1.157       .  T
C788        N794   1.158       .  T
N795       C1825   1.154       .  T
C797        C798   1.413       .  A
C797        C802   1.404       .  A
C797        C815   1.447       .  S
C798        C803   1.489       .  S
C798       C1847   1.408       .  A
C799       C1846   1.408       .  A
C799        C800   1.399       .  A
C799        C804   1.450       .  S
C800        C801   1.413       .  A
C800        C816   1.449       .  S
C801       C1850   1.403       .  A
C802       C1849   1.411       .  A
C802        C805   1.447       .  S
C803        C806   1.414       .  A
C803        C810   1.412       .  A
C804        N821   1.156       .  T
C805        N823   1.156       .  T
C806        C807   1.401       .  A
C806        C811   1.453       .  S
C807        C808   1.410       .  A
C807        C813   1.451       .  S
C808        C809   1.413       .  A
C809        C810   1.403       .  A
C809        C812   1.450       .  S
C810        C814   1.452       .  S
C811        N818   1.158       .  T
C812        N819   1.158       .  T
C813        N817   1.157       .  T
C814        N820   1.156       .  T
C815        N824   1.155       .  T
C816        N822   1.155       .  T
C825        C826   1.407       .  A
C825        C830   1.411       .  A
C825        C843   1.447       .  S
C826        C831   1.483       .  S
C826        C827   1.415       .  A
C827        C828   1.401       .  A
C827        C832   1.445       .  S
C828        C829   1.396       .  A
C828        C844   1.439       .  S
C829        C830   1.415       .  A
C830        C833   1.448       .  S
C831        C834   1.402       .  A
C831        C838   1.397       .  A
C832        N849   1.156       .  T
C833        N851   1.156       .  T
C834        C835   1.397       .  A
C834        C839   1.449       .  S
C835        C836   1.413       .  A
C835        C841   1.441       .  S
C836        C837   1.415       .  A
C837        C838   1.407       .  A
C837        C840   1.444       .  S
C838        C842   1.435       .  S
C839        N846   1.155       .  T
C840        N847   1.156       .  T
C841        N845   1.154       .  T
C842        N848   1.153       .  T
C843        N852   1.157       .  T
C844        N850   1.154       .  T
C853        C854   1.417       .  A
C853        C858   1.409       .  A
C853        C871   1.451       .  S
C854        C859   1.507       .  S
C854        C855   1.424       .  A
C855        C856   1.405       .  A
C855        C860   1.445       .  S
C856        C857   1.399       .  A
C856        C872   1.446       .  S
C857        C858   1.414       .  A
C858        C861   1.449       .  S
C859        C862   1.408       .  A
C859        C866   1.426       .  A
C860        N877   1.156       .  T
C861        N879   1.157       .  T
C862       C2959   1.402       .  A
C862       C2963   1.443       .  S
C863       C2958   1.403       .  A
C863       C2960   1.412       .  A
C863        C869   1.451   1_655  S
C864       C2719   1.483       .  S
C864       C2959   1.413       .  A
C864        C865   1.404       .  A
C865        C866   1.415       .  A
C865        C868   1.450       .  S
C866        C870   1.446       .  S
C867       C2958   1.441   1_455  S
C867        N874   1.153       .  T
C869        N873   1.157       .  T
C870        N876   1.156       .  T
C871        N880   1.157       .  T
C872        N878   1.156       .  T
C881        C882   1.398       .  A
C881        C886   1.400       .  A
C881        C899   1.452       .  S
C882        C887   1.490       .  S
C882        C883   1.427       .  A
C883        C884   1.408       .  A
C883        C888   1.452       .  S
C884        C885   1.405       .  A
C884        C900   1.449       .  S
C885        C886   1.431       .  A
C886        C889   1.451   1_556  S
C887        C890   1.404       .  A
C887        C894   1.406       .  A
C888        N905   1.157       .  T
C889        N907   1.156       .  T
C890        C891   1.408       .  A
C890        C895   1.449       .  S
C891        C892   1.423       .  A
C891        C897   1.449       .  S
C892        C893   1.409       .  A
C893        C894   1.390       .  A
C893        C896   1.445       .  S
C894        C898   1.445       .  S
C895        N902   1.157       .  T
C896        N903   1.155       .  T
C897        N901   1.157       .  T
C898        N904   1.157       .  T
C899        N908   1.156       .  T
C900        N906   1.157       .  T
C909        C910   1.408       .  A
C909        C914   1.411       .  A
C909        C927   1.451       .  S
C910        C915   1.487       .  S
C910        C911   1.414       .  A
C911        C912   1.395       .  A
C911        C916   1.456   1_556  S
C912        C913   1.412       .  A
C912        C928   1.445       .  S
C913        C914   1.421       .  A
C914        C917   1.449       .  S
C915        C918   1.418   1_455  A
C915        C922   1.399   1_456  A
C916        N933   1.157       .  T
C917        N935   1.157       .  T
C918       C3015   1.413       .  A
C918       C3019   1.451       .  S
C919       C3014   1.413       .  A
C919        C920   1.413       .  A
C919        C925   1.446       .  S
C920       C3017   1.409   1_556  A
C921       C3016   1.407   1_554  A
C921        C922   1.389       .  A
C921        C924   1.436       .  S
C922        C926   1.451   1_655  S
C923       C3014   1.449       .  S
C923        N930   1.157       .  T
C925        N929   1.156       .  T
C926        N932   1.157       .  T
C927        N936   1.157       .  T
C928        N934   1.153   1_556  T
C937        C938   1.416       .  A
C937        C942   1.388       .  A
C937        C955   1.457       .  S
C938       C3039   1.485       .  S
C938       C3035   1.417       .  A
C939       C3034   1.417       .  A
C939       C3036   1.416       .  A
C939        C944   1.444       .  S
C940       C3035   1.416       .  A
C940        C941   1.409       .  A
C940       C3052   1.448       .  S
C941        C942   1.407       .  A
C942        C945   1.451       .  S
C943       C3034   1.485       .  S
C943        C946   1.411       .  A
C943        C950   1.405       .  A
C944        N961   1.157       .  T
C945        N963   1.156   1_655  T
C946        C947   1.415       .  A
C946        C951   1.444       .  S
C947        C948   1.412       .  A
C947        C953   1.449       .  S
C948        C949   1.422       .  A
C949        C950   1.392       .  A
C950       C3050   1.459       .  S
C951        N958   1.156       .  T
C952        N959   1.156   1_554  T
C953        N957   1.157       .  T
C954       C3046   1.460       .  S
C954        N960   1.157       .  T
C955        N964   1.157       .  T
C956       C3036   1.448       .  S
C956       N2010   1.157       .  T
N962       C2004   1.157       .  T
C965        C966   1.409       .  A
C965        C970   1.413       .  A
C965        C983   1.451       .  S
C966        C971   1.493       .  S
C966        C967   1.405       .  A
C967        C968   1.398       .  A
C967        C972   1.447       .  S
C968        C969   1.427       .  A
C968        C984   1.453       .  S
C969        C970   1.420       .  A
C970        C973   1.442       .  S
C971        C974   1.403       .  A
C971       C3074   1.419       .  A
C972        N989   1.154       .  T
C973        N991   1.155       .  T
C974       C3071   1.403   1_455  A
C974        C979   1.452       .  S
C975       C3070   1.402       .  A
C975        C976   1.421       .  A
C975        C981   1.446       .  S
C976        C977   1.406       .  A
C977        C978   1.409       .  A
C977        C980   1.450       .  S
C978       C3067   1.419       .  A
C978       C3078   1.446       .  S
C979        N986   1.156       .  T
C980        N987   1.156       .  T
C981        N985   1.156       .  T
C982       C3074   1.446       .  S
C982        N988   1.157       .  T
C983       N3088   1.158       .  T
C984        N990   1.155       .  T
N992       C3079   1.157       .  T
C993        C994   1.413       .  A
C993        C998   1.401       .  A
C993       C1011   1.446       .  S
C994        C999   1.477       .  S
C994        C995   1.403       .  A
C995        C996   1.398       .  A
C995       C1000   1.446       .  S
C996        C997   1.409       .  A
C996       C1012   1.449       .  S
C997        C998   1.407       .  A
C998       C1001   1.447       .  S
C999       C1002   1.410       .  A
C999       C1006   1.409       .  A
C1000      N1017   1.155       .  T
C1001      N1019   1.156       .  T
C1002      C1003   1.403       .  A
C1002      C1007   1.449       .  S
C1003      C1004   1.407       .  A
C1003      C3105   1.447       .  S
C1004      C1005   1.399       .  A
C1005      C1006   1.401       .  A
C1005      C1008   1.443   1_545  S
C1006      C1010   1.445       .  S
C1007      N1014   1.157       .  T
C1008      N1015   1.156       .  T
C1009      C3099   1.446       .  S
C1009      N1013   1.158       .  T
C1010      N1016   1.156       .  T
C1011      N1020   1.155       .  T
C1012      N1018   1.156       .  T
C1021      C1022   1.403       .  A
C1021      C1026   1.384       .  A
C1021      C1039   1.453       .  S
C1022      C1027   1.474       .  S
C1022      C1023   1.415       .  A
C1023      C1024   1.411       .  A
C1023      C1028   1.448       .  S
C1024      C1025   1.404       .  A
C1024      C1040   1.444       .  S
C1025      C1026   1.415       .  A
C1026      C1029   1.447       .  S
C1027      C1030   1.413       .  A
C1027      C1034   1.410       .  A
C1028      N1045   1.157       .  T
C1029      N1047   1.157       .  T
C1030      C1031   1.403       .  A
C1030      C1035   1.442       .  S
C1031      C1032   1.398       .  A
C1031      C1037   1.444       .  S
C1032      C1033   1.407       .  A
C1033      C1034   1.397       .  A
C1033      C1036   1.447       .  S
C1034      C1038   1.452       .  S
C1035      N1042   1.155       .  T
C1036      N1043   1.157       .  T
C1037      N1041   1.156       .  T
C1038      N1044   1.157       .  T
C1039      N1048   1.157       .  T
C1040      N1046   1.156       .  T
C1049      N1050   1.393       .  A
C1049      N1054   1.352       .  A
C1049      C1168   1.516       .  S
N1050      C1051   1.396       .  A
C1051      N1052   1.344       .  A
C1051      C1138   1.499   1_554  S
N1052      C1053   1.335       .  A
C1053      N1054   1.351       .  A
C1053      C1556   1.470       .  S
C1055      N1056   1.349       .  A
C1055      N1060   1.397       .  A
C1055      C1135   1.530       .  S
N1056      C1057   1.353       .  A
C1057      N1058   1.338       .  A
C1057      C1528   1.470       .  S
N1058      C3155   1.349       .  A
C1059      N3154   1.348       .  A
C1059      N3156   1.400       .  A
C1059      C1235   1.504       .  S
N1060      C3155   1.401       .  A
C1061      N1062   1.393       .  A
C1061      N1066   1.345       .  A
C1061      C1230   1.520       .  S
N1062      C1063   1.396       .  A
C1063      N1064   1.364       .  A
C1063      C1187   1.528       .  S
N1064      C1065   1.350       .  A
C1065      N1066   1.336       .  A
C1065      C1500   1.488       .  S
C1067      N1068   1.366       .  A
C1067      N1072   1.354       .  A
C1067      C1493   1.508       .  S
N1068      C1069   1.369       .  A
C1069      N1070   1.349       .  A
C1069      C1521   1.471       .  S
N1070      C1071   1.327       .  A
C1071      N1072   1.347       .  A
C1071      C1549   1.471       .  S
O1073      C1089   1.277       .  A
O1073     Zn1079   1.992       .  S
C1074      C1108   1.543       .  S
C1074      O1090   1.281       .  A
C1074      O1087   1.292       .  A
O1075      C1088   1.283       .  A
O1075     Cd1082   2.181       .  S
O1076      C1094   1.301       .  A
O1076     Cd1085   2.192       .  S
O1077      C1091   1.297       .  A
O1077     Cd1081   2.166       .  S
O1078      C1089   1.278       .  A
O1078     Cd1081   2.196       .  S
Zn1079     O1090   2.042       .  S
Zn1079     O1092   2.029       .  S
Zn1079     O1084   1.874       .  S
O1080      C1091   1.277       .  A
O1080     Cd1085   2.099       .  S
Cd1081     O1083   2.100       .  S
Cd1081     O1084   2.077       .  S
Cd1082     O1086   2.185       .  S
Cd1082     O1095   2.178       .  S
Cd1082     O1084   2.051       .  S
O1083      C1093   1.280       .  A
O1084     Cd1085   2.035       .  S
Cd1085     O1087   2.252       .  S
O1086      C1093   1.301       .  A
C1088      C1155   1.508       .  S
C1088      O1092   1.280       .  A
C1089      C1202   1.517       .  S
C1091      C1153   1.485       .  S
C1093      C1106   1.513       .  S
C1094      C1198   1.532       .  S
C1094      O1095   1.288       .  A
C1096      N1101   1.393       .  A
C1096      C1215   1.516       .  S
N1097      C1098   1.347       .  A
C1098      N1099   1.352   1_655  A
C1098      C1465   1.462   1_545  S
C1100      N1101   1.396       .  A
C1100      C1140   1.516       .  S
C1102      N1103   1.348       .  A
C1102      N1107   1.391       .  A
C1102      C1121   1.533       .  S
N1103      C1104   1.352       .  A
C1104      N1105   1.343       .  A
C1104      C1437   1.489       .  S
N1105      C1106   1.350       .  A
C1106      N1107   1.396       .  A
C1108      N1109   1.352       .  A
C1108      N1113   1.403       .  A
N1109      C1110   1.345       .  A
C1110      N1111   1.336       .  A
C1110      C1416   1.473       .  S
N1111      C1112   1.350       .  A
C1112      N1113   1.409       .  A
C1112      C1234   1.515       .  S
C1114      N1115   1.370       .  A
C1114      N1119   1.346       .  A
C1114      C1409   1.499       .  S
N1115      C1116   1.366       .  A
C1116      N1641   1.360       .  A
C1116      C1444   1.494       .  S
N1117      C1640   1.359       .  A
N1117      C1118   1.352       .  A
C1118      N1643   1.342       .  A
C1118      C1472   1.477       .  S
N1119      C1642   1.341       .  A
O1120      C1660   1.286       .  A
O1120     Zn1126   2.053       .  S
C1121      O1137   1.285       .  A
C1121      O1134   1.285       .  A
O1122      C1135   1.290       .  A
O1122     Cd1129   2.200       .  S
O1123     Cd1132   2.128       .  S
O1124      C1138   1.294   1_554  A
O1124     Cd1128   2.138   1_554  S
O1125      C1136   1.284   1_554  A
O1125     Cd1128   2.200   1_554  S
Zn1126     O1137   2.107       .  S
Zn1126     O1139   2.127       .  S
Zn1126     O1131   1.908       .  S
O1127      C1138   1.271       .  A
O1127     Cd1656   2.102       .  S
Cd1128     O1130   2.102   1_556  S
Cd1128     O1655   2.026       .  S
Cd1129     O1131   2.044       .  S
O1130      C1140   1.276       .  A
O1131     Cd1652   2.028       .  S
O1131     Cd1132   2.053       .  S
Cd1132     O1651   2.117       .  S
Cd1132     O1134   2.195       .  S
C1135      O1139   1.290       .  A
C1136      C1143   1.525   1_455  S
C1136      O1644   1.287       .  A
C1141      C1157   1.509   1_545  S
C1141      O1142   1.284   1_545  A
C1143      N1144   1.392   1_556  A
C1143      N1672   1.330       .  A
N1144      C1145   1.407   1_554  A
C1145      N3766   1.374       .  A
C1145      C3284   1.531   1_556  S
N1146      C3765   1.368       .  A
N1146      C3243   1.355       .  A
C1147      N3242   1.355       .  A
C1147      N1148   1.338       .  A
C1147      C3484   1.488       .  S
N1148      C1667   1.335       .  A
C1149      N1150   1.359       .  A
C1149      N1154   1.386       .  A
C1149      C1183   1.524       .  S
N1150      C1151   1.364       .  A
C1151      N1152   1.342       .  A
C1151      C1353   1.493       .  S
N1152      C1153   1.349       .  A
C1153      N1154   1.388       .  A
C1155      N1156   1.394       .  A
C1155      N1160   1.354       .  A
N1156      C1157   1.394       .  A
C1157      N1158   1.348       .  A
N1158      C1159   1.336       .  A
C1159      N1160   1.340       .  A
C1159      C1332   1.465       .  S
C1161      N1162   1.355       .  A
C1161      N1166   1.356       .  A
C1161      C1360   1.496       .  S
N1162      C1163   1.356       .  A
C1163      N1164   1.350       .  A
C1163      C1325   1.465       .  S
N1164      C1165   1.347       .  A
C1165      N1166   1.358       .  A
C1165      C1381   1.489       .  S
O1167      C1183   1.284       .  A
O1167     Zn1173   2.140       .  S
C1168      O1184   1.288       .  A
C1168      O1181   1.290       .  A
O1169      C1182   1.293       .  A
O1169     Cd1176   2.248       .  S
O1170      C1188   1.300       .  A
O1170     Cd1179   2.203       .  S
O1171      C1709   1.294       .  A
O1171     Cd1175   2.168       .  S
O1172      C1183   1.284       .  A
O1172     Cd1175   2.147       .  S
Zn1173     O1184   2.072       .  S
Zn1173     O1186   2.046       .  S
Zn1173     O1178   1.949       .  S
O1174      C1185   1.286       .  A
O1174     Cd1703   2.163       .  S
Cd1175     O1177   2.111       .  S
Cd1175     O1178   2.049       .  S
Cd1176     O1180   2.205       .  S
Cd1176     O1189   2.149       .  S
Cd1176     O1178   2.055       .  S
O1177      C1187   1.280       .  A
O1178     Cd1179   2.063       .  S
Cd1179     O1698   2.155       .  S
Cd1179     O1181   2.191       .  S
O1180      C1187   1.297       .  A
C1182      C1190   1.542       .  S
C1182      O1186   1.283       .  A
C1185      C1206   1.535       .  S
C1185      O1695   1.294       .  A
C1188      C3241   1.529   1_554  S
C1188      O1189   1.284       .  A
C1190      N1191   1.395       .  A
C1190      N1195   1.354       .  A
N1191      C1192   1.404       .  A
C1192      N1193   1.367       .  A
C1192      C1232   1.536       .  S
N1193      C1194   1.360       .  A
C1194      N1195   1.345       .  A
C1194      C1304   1.491       .  S
C1196      N1197   1.407       .  A
C1196      N1201   1.360       .  A
C1196      C3325   1.543       .  S
N1197      C1198   1.404       .  A
C1198      N1199   1.343       .  A
N1199      C1200   1.339       .  A
C1200      N1201   1.351       .  A
C1200      C1269   1.485       .  S
C1202      N1203   1.336       .  A
C1202      N1207   1.387       .  A
N1203      C1204   1.325       .  A
C1204      N1205   1.365       .  A
C1204      C1241   1.499       .  S
N1205      C1206   1.382       .  A
C1206      N1207   1.401       .  A
C1208      N1209   1.349       .  A
C1208      N1213   1.357   1_565  A
C1208      C1248   1.489       .  S
N1209      C1210   1.341       .  A
C1210      C1276   1.482       .  S
N1211      C1212   1.363       .  A
C1212      C1297   1.502       .  S
O1214      C1230   1.287       .  A
O1214     Zn1220   2.081       .  S
C1215      O2279   1.291       .  A
C1215      O3324   1.285       .  A
O1216      C1229   1.292       .  A
O1216     Cd1223   2.220       .  S
O1217      C1235   1.293       .  A
O1217     Cd1226   2.156       .  S
O1218      C1232   1.304       .  A
O1219      C1230   1.285       .  A
O1219     Cd1222   2.186       .  S
Zn1220     O1231   2.143       .  S
Zn1220     O1233   2.102       .  S
Zn1220     O1225   1.969       .  S
O1221      C1232   1.286       .  A
O1221     Cd1226   2.153       .  S
Cd1222     O1224   2.155       .  S
Cd1222     O1225   2.087       .  S
Cd1223     O1227   2.175       .  S
Cd1223     O1225   2.063       .  S
O1224      C1234   1.282       .  A
Cd1226     O1228   2.151       .  S
O1227      C1234   1.298       .  A
O1228      C3311   1.285       .  A
C1229      C3292   1.544       .  S
C1229      O1233   1.289       .  A
O1231      C2263   1.289       .  A
C1235      O1236   1.281       .  A
C1237      C1238   1.405       .  A
C1237      C1242   1.410       .  A
C1237      C1779   1.439       .  S
C1238      C1243   1.493       .  S
C1238      C1239   1.392       .  A
C1239      C1240   1.405       .  A
C1239      C1244   1.441       .  S
C1240      C1241   1.433       .  A
C1240      C1256   1.451       .  S
C1241      C1242   1.407       .  A
C1242      C1245   1.437       .  S
C1243      C1770   1.407       .  A
C1243      C1250   1.410       .  A
C1244      N1261   1.153       .  T
C1245      N1263   1.153       .  T
C1246      C1767   1.405   1_554  A
C1246      C1247   1.410       .  A
C1246      C1251   1.450       .  S
C1247      C1248   1.417       .  A
C1247      C1253   1.446   1_565  S
C1248      C1249   1.417   1_554  A
C1249      C1774   1.405       .  A
C1249      C1252   1.453       .  S
C1250      C1773   1.406       .  A
C1250      C1254   1.451       .  S
C1251      N1258   1.157       .  T
C1252      N1259   1.157       .  T
C1253      N1257   1.156       .  T
C1254      N1260   1.156       .  T
C1255      C1761   1.439       .  S
C1255      N1264   1.154       .  T
C1256      N1262   1.157       .  T
C1265      C1266   1.402       .  A
C1265      C1270   1.403       .  A
C1265      C1283   1.445       .  S
C1266      C1271   1.523       .  S
C1266      C1267   1.399       .  A
C1267      C1268   1.415       .  A
C1267      C1272   1.444       .  S
C1268      C1269   1.435       .  A
C1268      C1284   1.451       .  S
C1269      C1270   1.423       .  A
C1270      C1273   1.444       .  S
C1271      C1274   1.425       .  A
C1271      C1278   1.416       .  A
C1272      N1289   1.157       .  T
C1273      N1291   1.155       .  T
C1274      C1275   1.404       .  A
C1274      C1279   1.453       .  S
C1275      C1276   1.413       .  A
C1276      C1277   1.416       .  A
C1277      C1278   1.410       .  A
C1277      C1280   1.447       .  S
C1278      C1282   1.452       .  S
C1279      N1286   1.158       .  T
C1280      N1287   1.156       .  T
C1281      N1285   1.156       .  T
C1282      N1288   1.157       .  T
C1283      N1292   1.157       .  T
C1284      N1290   1.157       .  T
C1293      C1294   1.408       .  A
C1293      C1298   1.406       .  A
C1293      C1311   1.448       .  S
C1294      C1299   1.494       .  S
C1294      C1295   1.411       .  A
C1295      C1296   1.414       .  A
C1295      C1300   1.447       .  S
C1296      C1297   1.416       .  A
C1296      C1312   1.450       .  S
C1297      C1298   1.406       .  A
C1298      C1301   1.439       .  S
C1299      C1302   1.405       .  A
C1299      C1306   1.412       .  A
C1300      N1317   1.156       .  T
C1302      C1303   1.415       .  A
C1302      C1307   1.450       .  S
C1303      C1304   1.420       .  A
C1303      C1309   1.443       .  S
C1304      C1305   1.408       .  A
C1305      C1306   1.408       .  A
C1305      C1308   1.445       .  S
C1306      C1310   1.451       .  S
C1307      N1314   1.156       .  T
C1308      N1315   1.155       .  T
C1309      N1313   1.156       .  T
C1310      N1316   1.157       .  T
C1311      N1320   1.157       .  T
C1312      N1318   1.158       .  T
C1321      C1322   1.413       .  A
C1321      C1326   1.401       .  A
C1321      C1339   1.444   1_545  S
C1322      C1327   1.483       .  S
C1323      C1324   1.399       .  A
C1323      C1328   1.452       .  S
C1324      C1325   1.414       .  A
C1324      C1340   1.448       .  S
C1326      C1329   1.445   1_545  S
C1327      C1330   1.413       .  A
C1327      C1334   1.412       .  A
C1328      N1345   1.157       .  T
C1329      N1347   1.155       .  T
C1330      C1331   1.400       .  A
C1330      C1335   1.453       .  S
C1331      C1332   1.411   1_545  A
C1331      C1337   1.451       .  S
C1332      C1333   1.411       .  A
C1333      C1334   1.401   1_565  A
C1333      C1336   1.451       .  S
C1334      C1338   1.452   1_545  S
C1335      N1342   1.157       .  T
C1336      N1343   1.157       .  T
C1337      N1341   1.158       .  T
C1338      N1344   1.157       .  T
C1339      N1348   1.154       .  T
C1340      N1346   1.155       .  T
C1349      C1350   1.407       .  A
C1349      C1354   1.411       .  A
C1349      C1367   1.447       .  S
C1350      C1355   1.485       .  S
C1350      C1351   1.417       .  A
C1351      C1352   1.403       .  A
C1351      C1356   1.444       .  S
C1352      C1353   1.394       .  A
C1352      C1368   1.440       .  S
C1353      C1354   1.414       .  A
C1354      C1357   1.446       .  S
C1355      C1358   1.403       .  A
C1355      C1362   1.397       .  A
C1356      N1373   1.155       .  T
C1357      N1375   1.157       .  T
C1358      C1359   1.400       .  A
C1358      C1363   1.449       .  S
C1359      C1360   1.412       .  A
C1359      C1365   1.442       .  S
C1360      C1361   1.413       .  A
C1361      C1362   1.407       .  A
C1361      C1364   1.444       .  S
C1362      C1366   1.433       .  S
C1363      N1370   1.155       .  T
C1364      N1371   1.156       .  T
C1365      N1369   1.154       .  T
C1366      N1372   1.153       .  T
C1367      N1376   1.158       .  T
C1368      N1374   1.155       .  T
C1377      C1378   1.417       .  A
C1377      C1382   1.411       .  A
C1377      C1395   1.451       .  S
C1378      C1383   1.505       .  S
C1378      C1379   1.423       .  A
C1379      C1380   1.404       .  A
C1379      C1384   1.446       .  S
C1380      C1381   1.399       .  A
C1380      C1396   1.448       .  S
C1381      C1382   1.416       .  A
C1382      C1385   1.450       .  S
C1383      C1386   1.408       .  A
C1383      C1390   1.423       .  A
C1384      N1401   1.156       .  T
C1385      N1403   1.158       .  T
C1386      C3483   1.401       .  A
C1386      C3487   1.443       .  S
C1387      C3482   1.402       .  A
C1387      C3484   1.413       .  A
C1387      C1393   1.449   1_655  S
C1388      C3243   1.488       .  S
C1388      C3483   1.412       .  A
C1388      C1389   1.404       .  A
C1389      C1390   1.416       .  A
C1389      C1392   1.448       .  S
C1390      C1394   1.444       .  S
C1391      C3482   1.442   1_455  S
C1391      N1398   1.153       .  T
C1392      N1923   1.157       .  T
C1393      N1397   1.156       .  T
C1394      N1400   1.155       .  T
C1395      N1404   1.156       .  T
C1396      N1402   1.156       .  T
N1399      C1916   1.158       .  T
C1405      C1406   1.410       .  A
C1405      C1410   1.406       .  A
C1405      C1423   1.450       .  S
C1406      C1411   1.501       .  S
C1406      C1407   1.430       .  A
C1407      C1408   1.407       .  A
C1407      C1412   1.450       .  S
C1408      C1409   1.398       .  A
C1408      C1424   1.449       .  S
C1409      C1410   1.429       .  A
C1410      C1413   1.454       .  S
C1411      C1414   1.412       .  A
C1411      C1418   1.407       .  A
C1412      N1429   1.157       .  T
C1413      N1431   1.158       .  T
C1414      C1415   1.412       .  A
C1414      C1419   1.448       .  S
C1415      C1416   1.416       .  A
C1415      C1421   1.449       .  S
C1416      C1417   1.408       .  A
C1417      C1418   1.392       .  A
C1417      C1420   1.446       .  S
C1418      C1422   1.444       .  S
C1419      N1426   1.158       .  T
C1420      N1427   1.155       .  T
C1421      N1425   1.157       .  T
C1422      N1428   1.157       .  T
C1423      N1432   1.157       .  T
C1424      N1430   1.157       .  T
C1433      C1434   1.405       .  A
C1433      C1438   1.409       .  A
C1433      C1451   1.451       .  S
C1434      C1439   1.484       .  S
C1434      C1435   1.415       .  A
C1435      C1436   1.396       .  A
C1435      C1440   1.454       .  S
C1436      C1437   1.413       .  A
C1436      C1452   1.449       .  S
C1437      C1438   1.423       .  A
C1438      C1441   1.450       .  S
C1439      C1442   1.417   1_455  A
C1439      C1446   1.396   1_455  A
C1440      N1457   1.157       .  T
C1441      N1459   1.158       .  T
C1442      C3539   1.414       .  A
C1442      C3543   1.451       .  S
C1443      C3538   1.413       .  A
C1443      C1444   1.417       .  A
C1443      C1449   1.445       .  S
C1444      C3541   1.406       .  A
C1445      C3540   1.407       .  A
C1445      C1446   1.388       .  A
C1445      C1448   1.435       .  S
C1446      C1450   1.451   1_655  S
C1447      C3538   1.451       .  S
C1447      N1454   1.158       .  T
C1448      N1979   1.155       .  T
C1449      N1453   1.155       .  T
C1450      N1456   1.155       .  T
C1451      N1460   1.157       .  T
C1452      N1458   1.155       .  T
N1455      C1972   1.155       .  T
C1461      C1462   1.413       .  A
C1461      C1466   1.386       .  A
C1461      C1479   1.455       .  S
C1462      C3563   1.486       .  S
C1462      C3559   1.418       .  A
C1463      C3558   1.418       .  A
C1463      C3560   1.416       .  A
C1463      C1468   1.443       .  S
C1464      C3559   1.416       .  A
C1464      C1465   1.408       .  A
C1464      C3576   1.446   1_565  S
C1465      C1466   1.406       .  A
C1466      C1469   1.450       .  S
C1467      C3558   1.486       .  S
C1467      C1470   1.411       .  A
C1467      C1474   1.406       .  A
C1468      N1485   1.156       .  T
C1469      N1487   1.156   1_655  T
C1470      C1471   1.417       .  A
C1470      C1475   1.446       .  S
C1471      C1472   1.415       .  A
C1471      C1477   1.450       .  S
C1472      C1473   1.423       .  A
C1473      C1474   1.387       .  A
C1473      C2000   1.449       .  S
C1474      C3574   1.462       .  S
C1475      N1482   1.157       .  T
C1476      C1997   1.451       .  S
C1476      N1483   1.156       .  T
C1477      N1481   1.157       .  T
C1478      C3570   1.462       .  S
C1478      N1484   1.157   1_554  T
C1479      N1488   1.158       .  T
C1480      C3560   1.446   1_545  S
C1489      C1490   1.411       .  A
C1489      C1494   1.414       .  A
C1489      C1507   1.452       .  S
C1490      C1495   1.494       .  S
C1490      C1491   1.406       .  A
C1491      C1492   1.397       .  A
C1491      C1496   1.450       .  S
C1492      C1493   1.430       .  A
C1492      C1508   1.454       .  S
C1493      C1494   1.420       .  A
C1494      C1497   1.443       .  S
C1495      C1498   1.402       .  A
C1495      C3598   1.416       .  A
C1496      N1513   1.156       .  T
C1497      N1515   1.156       .  T
C1498      C3595   1.401   1_455  A
C1498      C1503   1.451       .  S
C1499      C3594   1.401       .  A
C1499      C1500   1.423       .  A
C1499      C1505   1.446       .  S
C1500      C1501   1.407       .  A
C1501      C1502   1.409       .  A
C1501      C1504   1.450       .  S
C1502      C3591   1.415       .  A
C1502      C3602   1.444       .  S
C1503      N1510   1.156       .  T
C1504      N1511   1.155       .  T
C1505      N1509   1.158       .  T
C1506      C3598   1.444       .  S
C1506      N1512   1.157       .  T
C1507      N3612   1.157       .  T
C1508      N1514   1.156       .  T
N1516      C3603   1.157       .  T
C1517      C1518   1.415       .  A
C1517      C1522   1.401       .  A
C1517      C1535   1.445       .  S
C1518      C1523   1.481       .  S
C1518      C1519   1.407       .  A
C1519      C1520   1.401       .  A
C1519      C1524   1.447       .  S
C1520      C1521   1.412       .  A
C1520      C1536   1.450       .  S
C1521      C1522   1.405       .  A
C1522      C1525   1.448       .  S
C1523      C1526   1.414       .  A
C1523      C1530   1.410       .  A
C1524      N1541   1.156       .  T
C1525      N1543   1.156       .  T
C1526      C1527   1.405       .  A
C1526      C1531   1.448       .  S
C1527      C1528   1.405       .  A
C1527      C3629   1.448       .  S
C1528      C1529   1.399       .  A
C1529      C1530   1.401       .  A
C1529      C1532   1.444       .  S
C1530      C1534   1.446       .  S
C1531      N1538   1.157       .  T
C1532      N1539   1.155       .  T
C1533      C3623   1.449       .  S
C1533      N1537   1.157       .  T
C1534      N1540   1.156       .  T
C1535      N1544   1.154       .  T
C1536      N1542   1.157       .  T
C1545      C1546   1.403       .  A
C1545      C1550   1.387       .  A
C1545      C1563   1.452       .  S
C1546      C1551   1.477       .  S
C1546      C1547   1.414       .  A
C1547      C1548   1.408       .  A
C1547      C1552   1.447       .  S
C1548      C1549   1.401       .  A
C1548      C1564   1.444       .  S
C1549      C1550   1.419       .  A
C1550      C1553   1.448       .  S
C1551      C1554   1.417       .  A
C1551      C1558   1.411       .  A
C1552      N1569   1.156       .  T
C1553      N1571   1.156       .  T
C1554      C1555   1.405       .  A
C1554      C1559   1.444       .  S
C1555      C1556   1.399       .  A
C1555      C1561   1.447       .  S
C1556      C1557   1.405       .  A
C1557      C1558   1.395       .  A
C1557      C1560   1.446       .  S
C1558      C1562   1.452       .  S
C1559      N1566   1.155       .  T
C1560      N1567   1.158       .  T
C1561      N1565   1.157       .  T
C1562      N1568   1.157       .  T
C1563      N1572   1.157       .  T
C1564      N1570   1.156       .  T
C1573      N1574   1.395       .  A
C1573      N1578   1.350       .  A
C1573      C1692   1.520       .  S
N1574      C1575   1.398       .  A
C1575      N1576   1.347       .  A
C1575      C1662   1.508       .  S
N1576      C1577   1.339       .  A
C1577      N1578   1.349       .  A
C1577      C2080   1.472       .  S
C1579      N1580   1.349       .  A
C1579      N1584   1.398       .  A
C1579      C1659   1.531       .  S
N1580      C1581   1.352       .  A
C1581      N1582   1.340       .  A
C1581      C2052   1.472       .  S
N1582      C3679   1.350       .  A
C1583      N3678   1.350       .  A
C1583      N3680   1.403       .  A
C1583      C1759   1.512       .  S
N1584      C3679   1.402       .  A
C1585      N1586   1.392       .  A
C1585      N1590   1.348       .  A
C1585      C1754   1.519       .  S
N1586      C1587   1.394       .  A
C1587      N1588   1.366       .  A
C1587      C1711   1.528       .  S
N1588      C1589   1.352       .  A
C1589      N1590   1.338       .  A
C1589      C2024   1.491       .  S
C1591      N1592   1.363       .  A
C1591      N1596   1.355       .  A
C1591      C2017   1.506       .  S
N1592      C1593   1.365       .  A
C1593      N1594   1.352       .  A
C1593      C2045   1.470       .  S
N1594      C1595   1.333       .  A
C1595      N1596   1.349       .  A
C1595      C2073   1.471       .  S
O1597      C1613   1.279       .  A
O1597     Zn1603   2.004       .  S
C1598      C1632   1.545       .  S
C1598      O1614   1.285       .  A
C1598      O1611   1.291       .  A
O1599      C1612   1.283       .  A
O1599     Cd1606   2.188       .  S
O1600      C1618   1.299       .  A
O1600     Cd1609   2.177       .  S
O1601      C1615   1.298       .  A
O1601     Cd1605   2.174       .  S
O1602      C1613   1.278       .  A
O1602     Cd1605   2.195       .  S
Zn1603     O1614   2.066       .  S
Zn1603     O1616   2.034       .  S
Zn1603     O1608   1.880       .  S
O1604      C1615   1.275       .  A
O1604     Cd1609   2.093       .  S
Cd1605     O1607   2.110       .  S
Cd1605     O1608   2.078       .  S
Cd1606     O1610   2.190       .  S
Cd1606     O1619   2.184       .  S
Cd1606     O1608   2.053       .  S
O1607      C1617   1.281       .  A
O1608     Cd1609   2.039       .  S
Cd1609     O1611   2.247       .  S
O1610      C1617   1.302       .  A
C1612      C1679   1.513       .  S
C1612      O1616   1.282       .  A
C1613      C1726   1.520       .  S
C1615      C1677   1.485       .  S
C1617      C1630   1.520       .  S
C1618      C1722   1.530       .  S
C1618      O1619   1.290       .  A
C1620      N1625   1.393       .  A
C1620      C1739   1.515       .  S
N1621      C1622   1.344       .  A
C1622      N1623   1.354   1_655  A
C1622      C1989   1.461   1_545  S
C1624      N1625   1.397       .  A
C1624      C1664   1.514       .  S
C1626      N1627   1.346       .  A
C1626      N1631   1.393       .  A
C1626      C1645   1.536       .  S
N1627      C1628   1.351       .  A
C1628      N1629   1.344       .  A
C1628      C1961   1.487       .  S
N1629      C1630   1.353       .  A
C1630      N1631   1.399       .  A
C1632      N1633   1.352       .  A
C1632      N1637   1.404       .  A
N1633      C1634   1.346       .  A
C1634      N1635   1.333       .  A
C1634      C1940   1.471       .  S
N1635      C1636   1.346       .  A
C1636      N1637   1.409       .  A
C1636      C1758   1.515       .  S
C1638      N1639   1.368       .  A
C1638      N1643   1.346   1_556  A
C1638      C1933   1.502       .  S
N1639      C1640   1.370   1_556  A
C1640      C1968   1.498   1_554  S
N1641      C1642   1.352       .  A
C1642      C1996   1.474       .  S
O1644     Zn1650   2.058       .  S
C1645      O1661   1.288       .  A
C1645      O1658   1.284       .  A
O1646      C1659   1.291       .  A
O1646     Cd1653   2.202       .  S
O1647     Cd1656   2.113       .  S
O1648      C1662   1.295       .  A
O1648     Cd1652   2.151       .  S
O1649      C1660   1.287       .  A
O1649     Cd1652   2.204       .  S
Zn1650     O1661   2.121       .  S
Zn1650     O1663   2.128       .  S
Zn1650     O1655   1.909       .  S
O1651      C1662   1.274       .  A
Cd1652     O1654   2.107       .  S
Cd1653     O1655   2.042       .  S
O1654      C1664   1.277       .  A
O1655     Cd1656   2.056       .  S
Cd1656     O1658   2.194       .  S
C1659      O1663   1.290       .  A
C1660      C1667   1.522   1_455  S
C1665      C1681   1.517   1_545  S
C1665      O1666   1.284   1_545  A
C1667      N1668   1.391       .  A
N1668      C1669   1.403       .  A
C1669      N3242   1.369       .  A
C1669      C3808   1.519       .  S
N1670      C3241   1.374       .  A
N1670      C3767   1.359       .  A
C1671      N3766   1.360       .  A
C1671      N1672   1.333       .  A
C1671      C4008   1.491       .  S
C1673      N1674   1.363       .  A
C1673      N1678   1.386       .  A
C1673      C1707   1.529       .  S
N1674      C1675   1.367       .  A
C1675      N1676   1.340       .  A
C1675      C1877   1.496       .  S
N1676      C1677   1.347       .  A
C1677      N1678   1.388       .  A
C1679      N1680   1.399       .  A
C1679      N1684   1.352       .  A
N1680      C1681   1.400       .  A
C1681      N1682   1.347       .  A
N1682      C1683   1.335       .  A
C1683      N1684   1.338       .  A
C1683      C1856   1.464       .  S
C1685      N1686   1.356       .  A
C1685      N1690   1.354       .  A
C1685      C1884   1.498       .  S
N1686      C1687   1.358       .  A
C1687      N1688   1.352       .  A
C1687      C1849   1.474       .  S
N1688      C1689   1.349       .  A
C1689      N1690   1.357       .  A
C1689      C1905   1.490       .  S
O1691      C1707   1.288       .  A
O1691     Zn1697   2.162       .  S
C1692      O1708   1.291       .  A
C1692      O1705   1.289       .  A
O1693      C1706   1.290       .  A
O1693     Cd1700   2.229       .  S
O1694      C1712   1.299       .  A
O1694     Cd1703   2.194       .  S
O1695     Cd1699   2.183       .  S
O1696      C1707   1.283       .  A
O1696     Cd1699   2.138       .  S
Zn1697     O1708   2.097       .  S
Zn1697     O1710   2.076       .  S
Zn1697     O1702   1.953       .  S
O1698      C1709   1.283       .  A
Cd1699     O1701   2.116       .  S
Cd1699     O1702   2.047       .  S
Cd1700     O1704   2.208       .  S
Cd1700     O1713   2.130       .  S
Cd1700     O1702   2.060       .  S
O1701      C1711   1.282       .  A
O1702     Cd1703   2.063       .  S
Cd1703     O1705   2.188       .  S
O1704      C1711   1.298       .  A
C1706      C1714   1.541       .  S
C1706      O1710   1.286       .  A
C1709      C1730   1.526   1_554  S
C1712      C3765   1.519       .  S
C1712      O1713   1.281       .  A
C1714      N1715   1.396       .  A
C1714      N1719   1.355       .  A
N1715      C1716   1.402       .  A
C1716      N1717   1.368       .  A
C1716      C1756   1.538       .  S
N1717      C1718   1.361       .  A
C1718      N1719   1.347       .  A
C1718      C1828   1.494       .  S
C1720      N1721   1.405       .  A
C1720      N1725   1.363       .  A
C1720      C3849   1.543       .  S
N1721      C1722   1.402       .  A
C1722      N1723   1.345       .  A
N1723      C1724   1.341       .  A
C1724      N1725   1.353       .  A
C1724      C1793   1.493       .  S
C1726      N1727   1.335       .  A
C1726      N1731   1.389       .  A
N1727      C1728   1.329       .  A
C1728      N1729   1.359       .  A
C1728      C1765   1.492       .  S
N1729      C1730   1.374       .  A
C1730      N1731   1.403       .  A
C1732      N1733   1.349       .  A
C1732      N1737   1.360   1_565  A
C1732      C1772   1.492       .  S
N1733      C1734   1.343       .  A
C1734      C1800   1.487       .  S
N1735      C1736   1.363       .  A
C1736      C1821   1.502       .  S
O1738      C1754   1.286       .  A
O1738     Zn1744   2.074       .  S
C1739      O2803   1.288       .  A
C1739      O3848   1.285       .  A
O1740      C1753   1.293       .  A
O1740     Cd1747   2.227       .  S
O1741      C1759   1.295       .  A
O1741     Cd1750   2.170       .  S
O1742      C1756   1.303       .  A
O1743      C1754   1.286       .  A
O1743     Cd1746   2.191       .  S
Zn1744     O1755   2.139       .  S
Zn1744     O1757   2.091       .  S
Zn1744     O1749   1.969       .  S
O1745      C1756   1.288       .  A
O1745     Cd1750   2.164       .  S
Cd1746     O1748   2.149       .  S
Cd1746     O1749   2.084       .  S
Cd1747     O1751   2.182       .  S
Cd1747     O1749   2.060       .  S
O1748      C1758   1.280       .  A
Cd1750     O1752   2.150       .  S
O1751      C1758   1.300       .  A
O1752      C3835   1.285       .  A
C1753      C3816   1.542       .  S
C1753      O1757   1.287       .  A
O1755      C2787   1.289       .  A
C1759      O1760   1.281       .  A
C1761      C1762   1.406   1_554  A
C1761      C1766   1.411       .  A
C1762      C1767   1.487       .  S
C1762      C1763   1.392       .  A
C1763      C1764   1.399       .  A
C1763      C1768   1.442       .  S
C1764      C1765   1.430       .  A
C1764      C1780   1.453       .  S
C1765      C1766   1.411   1_556  A
C1766      C1769   1.444       .  S
C1767      C1774   1.410       .  A
C1768      N1785   1.153       .  T
C1769      N1787   1.155       .  T
C1770      C1771   1.412       .  A
C1770      C1775   1.449       .  S
C1771      C1772   1.415       .  A
C1771      C1777   1.445   1_565  S
C1772      C1773   1.415       .  A
C1773      C1776   1.453       .  S
C1774      C1778   1.452       .  S
C1775      N1782   1.157       .  T
C1776      N1783   1.155       .  T
C1777      N1781   1.156       .  T
C1778      N1784   1.157       .  T
C1779      N1788   1.152       .  T
C1780      N1786   1.156       .  T
C1789      C1790   1.400       .  A
C1789      C1794   1.406       .  A
C1789      C1807   1.443       .  S
C1790      C1795   1.516       .  S
C1790      C1791   1.400       .  A
C1791      C1792   1.416       .  A
C1791      C1796   1.447       .  S
C1792      C1793   1.437       .  A
C1792      C1808   1.451       .  S
C1793      C1794   1.425       .  A
C1794      C1797   1.447       .  S
C1795      C1798   1.416       .  A
C1795      C1802   1.410       .  A
C1796      N1813   1.157       .  T
C1797      N1815   1.156       .  T
C1798      C1799   1.401       .  A
C1798      C1803   1.455       .  S
C1799      C1800   1.417       .  A
C1800      C1801   1.421       .  A
C1801      C1802   1.409       .  A
C1801      C1804   1.448       .  S
C1802      C1806   1.449       .  S
C1803      N1810   1.158       .  T
C1804      N1811   1.156       .  T
C1805      N1809   1.156       .  T
C1806      N1812   1.157       .  T
C1807      N1816   1.157       .  T
C1808      N1814   1.158       .  T
C1817      C1818   1.408       .  A
C1817      C1822   1.406       .  A
C1817      C1835   1.449       .  S
C1818      C1823   1.493       .  S
C1818      C1819   1.410       .  A
C1819      C1820   1.414       .  A
C1819      C1824   1.448       .  S
C1820      C1821   1.417       .  A
C1820      C1836   1.451       .  S
C1821      C1822   1.410       .  A
C1822      C1825   1.443       .  S
C1823      C1826   1.404       .  A
C1823      C1830   1.411       .  A
C1824      N1841   1.156       .  T
C1826      C1827   1.414       .  A
C1826      C1831   1.450       .  S
C1827      C1828   1.420       .  A
C1827      C1833   1.442       .  S
C1828      C1829   1.409       .  A
C1829      C1830   1.408       .  A
C1829      C1832   1.444       .  S
C1830      C1834   1.451       .  S
C1831      N1838   1.156       .  T
C1832      N1839   1.154       .  T
C1833      N1837   1.155       .  T
C1834      N1840   1.156       .  T
C1835      N1844   1.156       .  T
C1836      N1842   1.157       .  T
C1845      C1846   1.416       .  A
C1845      C1850   1.401       .  A
C1845      C1863   1.448   1_545  S
C1846      C1851   1.488       .  S
C1847      C1848   1.399       .  A
C1847      C1852   1.453       .  S
C1848      C1849   1.416       .  A
C1848      C1864   1.449       .  S
C1850      C1853   1.444   1_545  S
C1851      C1854   1.417       .  A
C1851      C1858   1.411       .  A
C1852      N1869   1.156       .  T
C1853      N1871   1.154       .  T
C1854      C1855   1.403       .  A
C1854      C1859   1.453       .  S
C1855      C1856   1.412   1_545  A
C1855      C1861   1.453       .  S
C1856      C1857   1.411       .  A
C1857      C1858   1.399   1_565  A
C1857      C1860   1.452       .  S
C1858      C1862   1.451       .  S
C1859      N1866   1.157       .  T
C1860      N1867   1.157       .  T
C1861      N1865   1.158       .  T
C1862      N1868   1.156       .  T
C1863      N1872   1.155       .  T
C1864      N1870   1.156       .  T
C1873      C1874   1.408       .  A
C1873      C1878   1.412       .  A
C1873      C1891   1.448       .  S
C1874      C1879   1.487       .  S
C1874      C1875   1.419       .  A
C1875      C1876   1.403       .  A
C1875      C1880   1.445       .  S
C1876      C1877   1.392       .  A
C1876      C1892   1.438       .  S
C1877      C1878   1.416       .  A
C1878      C1881   1.446       .  S
C1879      C1882   1.404       .  A
C1879      C1886   1.398       .  A
C1880      N1897   1.156       .  T
C1881      N1899   1.157       .  T
C1882      C1883   1.401       .  A
C1882      C1887   1.446       .  S
C1883      C1884   1.409       .  A
C1883      C1889   1.442       .  S
C1884      C1885   1.414       .  A
C1885      C1886   1.408       .  A
C1885      C1888   1.442       .  S
C1886      C1890   1.437       .  S
C1887      N1894   1.155       .  T
C1888      N1895   1.155       .  T
C1889      N1893   1.154       .  T
C1890      N1896   1.153       .  T
C1891      N1900   1.157       .  T
C1892      N1898   1.154       .  T
C1901      C1902   1.415       .  A
C1901      C1906   1.409       .  A
C1901      C1919   1.450       .  S
C1902      C1907   1.507       .  S
C1902      C1903   1.423       .  A
C1903      C1904   1.407       .  A
C1903      C1908   1.447       .  S
C1904      C1905   1.403       .  A
C1904      C1920   1.448       .  S
C1905      C1906   1.417       .  A
C1906      C1909   1.451       .  S
C1907      C1910   1.404       .  A
C1907      C1914   1.424       .  A
C1908      N1925   1.156       .  T
C1909      N1927   1.157       .  T
C1910      C4007   1.402       .  A
C1910      C4011   1.443       .  S
C1911      C4006   1.403       .  A
C1911      C4008   1.420       .  A
C1911      C1917   1.452   1_655  S
C1912      C3767   1.490       .  S
C1912      C4007   1.420       .  A
C1912      C1913   1.406       .  A
C1913      C1914   1.417       .  A
C1913      C1916   1.448       .  S
C1914      C1918   1.445       .  S
C1915      C4006   1.443   1_455  S
C1915      N1922   1.153       .  T
C1917      N1921   1.156       .  T
C1918      N1924   1.155       .  T
C1919      N1928   1.157       .  T
C1920      N1926   1.157       .  T
C1929      C1930   1.398       .  A
C1929      C1934   1.401       .  A
C1929      C1947   1.450       .  S
C1930      C1935   1.492       .  S
C1930      C1931   1.425       .  A
C1931      C1932   1.410       .  A
C1931      C1936   1.451       .  S
C1932      C1933   1.406       .  A
C1932      C1948   1.449       .  S
C1933      C1934   1.431       .  A
C1934      C1937   1.450   1_556  S
C1935      C1938   1.404       .  A
C1935      C1942   1.406       .  A
C1936      N1953   1.157       .  T
C1937      N1955   1.157       .  T
C1938      C1939   1.407       .  A
C1938      C1943   1.448       .  S
C1939      C1940   1.419       .  A
C1939      C1945   1.449       .  S
C1940      C1941   1.409       .  A
C1941      C1942   1.392       .  A
C1941      C1944   1.445       .  S
C1942      C1946   1.445       .  S
C1943      N1950   1.157       .  T
C1944      N1951   1.154       .  T
C1945      N1949   1.157       .  T
C1946      N1952   1.157       .  T
C1947      N1956   1.156       .  T
C1948      N1954   1.157       .  T
C1957      C1958   1.406       .  A
C1957      C1962   1.410       .  A
C1957      C1975   1.451       .  S
C1958      C1963   1.482       .  S
C1958      C1959   1.414       .  A
C1959      C1960   1.395       .  A
C1959      C1964   1.454   1_556  S
C1960      C1961   1.412       .  A
C1960      C1976   1.448       .  S
C1961      C1962   1.421       .  A
C1962      C1965   1.449       .  S
C1963      C1966   1.414   1_455  A
C1963      C1970   1.396   1_456  A
C1964      N1981   1.158       .  T
C1965      N1983   1.158       .  T
C1966      C4063   1.412       .  A
C1966      C4067   1.449       .  S
C1967      C4062   1.412       .  A
C1967      C1968   1.413       .  A
C1967      C1973   1.445       .  S
C1968      C4065   1.412   1_556  A
C1969      C4064   1.412       .  A
C1969      C1970   1.390       .  A
C1969      C1972   1.438       .  S
C1970      C1974   1.451   1_655  S
C1971      C4062   1.448       .  S
C1971      N1978   1.157       .  T
C1973      N1977   1.155       .  T
C1974      N1980   1.157       .  T
C1975      N1984   1.157       .  T
C1976      N1982   1.154       .  T
C1985      C1986   1.413       .  A
C1985      C1990   1.387       .  A
C1985      C2003   1.457       .  S
C1986      C4087   1.480       .  S
C1986      C4083   1.415       .  A
C1987      C4082   1.415       .  A
C1987      C4084   1.414   1_565  A
C1987      C1992   1.445       .  S
C1988      C4083   1.414   1_545  A
C1988      C1989   1.410   1_545  A
C1988      C4100   1.448       .  S
C1989      C1990   1.411       .  A
C1990      C1993   1.452       .  S
C1991      C4082   1.481       .  S
C1991      C1994   1.409       .  A
C1991      C1998   1.406       .  A
C1992      N2009   1.156       .  T
C1993      N2011   1.155   1_655  T
C1994      C1995   1.413       .  A
C1994      C1999   1.445       .  S
C1995      C1996   1.413       .  A
C1995      C2001   1.449       .  S
C1996      C1997   1.423       .  A
C1997      C1998   1.390       .  A
C1998      C4098   1.462       .  S
C1999      N2006   1.156       .  T
C2000      N2007   1.157   1_554  T
C2001      N2005   1.157       .  T
C2002      C4094   1.462       .  S
C2002      N2008   1.157       .  T
C2003      N2012   1.157       .  T
C2004      C4084   1.448       .  S
C2013      C2014   1.406       .  A
C2013      C2018   1.411       .  A
C2013      C2031   1.452       .  S
C2014      C2019   1.491       .  S
C2014      C2015   1.405       .  A
C2015      C2016   1.398       .  A
C2015      C2020   1.449       .  S
C2016      C2017   1.428       .  A
C2016      C2032   1.453       .  S
C2017      C2018   1.420       .  A
C2018      C2021   1.440       .  S
C2019      C2022   1.402       .  A
C2019      C4122   1.415       .  A
C2020      N2037   1.154       .  T
C2021      N2039   1.154       .  T
C2022      C4119   1.403   1_455  A
C2022      C2027   1.452       .  S
C2023      C4118   1.402       .  A
C2023      C2024   1.423       .  A
C2023      C2029   1.446       .  S
C2024      C2025   1.408       .  A
C2025      C2026   1.409       .  A
C2025      C2028   1.449       .  S
C2026      C4115   1.414       .  A
C2026      C4126   1.446       .  S
C2027      N2034   1.157       .  T
C2028      N2035   1.156       .  T
C2029      N2033   1.157       .  T
C2030      C4122   1.447       .  S
C2030      N2036   1.157       .  T
C2031      N4136   1.157       .  T
C2032      N2038   1.157       .  T
N2040      C4127   1.157       .  T
C2041      C2042   1.414       .  A
C2041      C2046   1.401       .  A
C2041      C2059   1.449       .  S
C2042      C2047   1.479       .  S
C2042      C2043   1.405       .  A
C2043      C2044   1.400       .  A
C2043      C2048   1.445       .  S
C2044      C2045   1.408       .  A
C2044      C2060   1.449       .  S
C2045      C2046   1.408       .  A
C2046      C2049   1.448       .  S
C2047      C2050   1.410       .  A
C2047      C2054   1.409       .  A
C2048      N2065   1.156       .  T
C2049      N2067   1.158       .  T
C2050      C2051   1.405       .  A
C2050      C2055   1.449       .  S
C2051      C2052   1.407       .  A
C2051      C4153   1.446       .  S
C2052      C2053   1.401       .  A
C2053      C2054   1.401       .  A
C2053      C2056   1.444       .  S
C2054      C2058   1.446       .  S
C2055      N2062   1.157       .  T
C2056      N2063   1.155       .  T
C2057      C4147   1.446       .  S
C2057      N2061   1.158       .  T
C2058      N2064   1.157       .  T
C2059      N2068   1.155       .  T
C2060      N2066   1.157       .  T
C2069      C2070   1.405       .  A
C2069      C2074   1.387       .  A
C2069      C2087   1.452       .  S
C2070      C2075   1.481       .  S
C2070      C2071   1.416       .  A
C2071      C2072   1.410       .  A
C2071      C2076   1.447       .  S
C2072      C2073   1.401       .  A
C2072      C2088   1.442       .  S
C2073      C2074   1.415       .  A
C2074      C2077   1.448       .  S
C2075      C2078   1.415       .  A
C2075      C2082   1.411       .  A
C2076      N2093   1.157       .  T
C2077      N2095   1.156       .  T
C2078      C2079   1.406       .  A
C2078      C2083   1.443       .  S
C2079      C2080   1.403       .  A
C2079      C2085   1.447       .  S
C2080      C2081   1.405       .  A
C2081      C2082   1.396       .  A
C2081      C2084   1.447       .  S
C2082      C2086   1.451       .  S
C2083      N2090   1.154       .  T
C2084      N2091   1.156       .  T
C2085      N2089   1.156       .  T
C2086      N2092   1.157       .  T
C2087      N2096   1.156       .  T
C2088      N2094   1.154       .  T
C2097      N2098   1.391       .  A
C2097      N2102   1.352       .  A
C2097      C2216   1.511       .  S
N2098      C2099   1.394       .  A
C2099      N2100   1.344       .  A
C2099      C2186   1.498   1_554  S
N2100      C2101   1.335       .  A
C2101      N2102   1.349       .  A
C2101      C2604   1.470       .  S
C2103      N2104   1.350       .  A
C2103      N2108   1.397       .  A
C2103      C2183   1.531       .  S
N2104      C2105   1.355       .  A
C2105      N2106   1.337       .  A
C2105      C2576   1.471       .  S
C2107      C2283   1.507   1_445  S
C2109      N2110   1.396       .  A
C2109      N2114   1.345       .  A
C2109      C2278   1.526       .  S
N2110      C2111   1.402       .  A
C2111      N2112   1.358       .  A
C2111      C2235   1.534       .  S
N2112      C2113   1.350       .  A
C2113      N2114   1.340       .  A
C2113      C2548   1.484       .  S
C2115      N2116   1.363       .  A
C2115      N2120   1.354       .  A
C2115      C2541   1.504       .  S
N2116      C2117   1.366       .  A
C2117      N2118   1.351       .  A
C2117      C2569   1.470       .  S
N2118      C2119   1.332       .  A
C2119      N2120   1.349       .  A
C2119      C2597   1.472       .  S
O2121      C2137   1.277       .  A
O2121     Zn2127   1.996       .  S
C2122      C2156   1.544       .  S
C2122      O2138   1.283       .  A
C2122      O2135   1.291       .  A
O2123      C2136   1.284       .  A
O2123     Cd2130   2.191       .  S
O2124      C2142   1.299       .  A
O2124     Cd2133   2.174       .  S
O2125      C2139   1.296       .  A
O2125     Cd2129   2.164       .  S
O2126      C2137   1.275       .  A
O2126     Cd2129   2.185       .  S
Zn2127     O2138   2.053       .  S
Zn2127     O2140   2.045       .  S
Zn2127     O2132   1.873       .  S
O2128      C2139   1.275       .  A
O2128     Cd2133   2.093       .  S
Cd2129     O2131   2.104       .  S
Cd2129     O2132   2.075       .  S
Cd2130     O2134   2.192       .  S
Cd2130     O2143   2.174       .  S
Cd2130     O2132   2.052       .  S
O2131      C2141   1.281       .  A
O2132     Cd2133   2.032       .  S
Cd2133     O2135   2.251       .  S
O2134      C2141   1.301       .  A
C2136      C2203   1.517       .  S
C2136      O2140   1.282       .  A
C2137      C2250   1.515       .  S
C2139      C2201   1.483       .  S
C2141      C2154   1.519       .  S
C2142      C2246   1.525       .  S
C2142      O2143   1.288       .  A
C2144      N3193   1.348       .  A
C2144      N2149   1.394       .  A
C2144      C2263   1.518   1_545  S
N2145      C3192   1.345       .  A
N2145      C2146   1.344       .  A
C2146      N2147   1.358       .  A
C2146      C2513   1.466       .  S
N2147      C3196   1.360       .  A
C2148      N3195   1.356       .  A
C2148      N2149   1.397       .  A
C2148      C2188   1.514       .  S
C2150      N2151   1.348       .  A
C2150      N2155   1.391       .  A
C2150      C2169   1.531       .  S
N2151      C2152   1.351       .  A
C2152      N2153   1.346       .  A
C2152      C2485   1.494       .  S
N2153      C2154   1.353       .  A
C2154      N2155   1.396       .  A
C2156      N2157   1.349       .  A
C2156      N2161   1.402       .  A
N2157      C2158   1.344       .  A
C2158      N2159   1.337       .  A
C2158      C2464   1.472       .  S
N2159      C2160   1.351       .  A
C2160      N2161   1.410       .  A
C2160      C2282   1.515       .  S
C2162      N2163   1.370       .  A
C2162      N2167   1.347       .  A
C2162      C2457   1.501       .  S
N2163      C2164   1.367       .  A
C2164      N2689   1.361       .  A
C2164      C2492   1.496       .  S
N2165      C2688   1.361       .  A
N2165      C2166   1.350       .  A
C2166      N2691   1.340       .  A
C2166      C2520   1.476       .  S
N2167      C2690   1.342       .  A
O2168      C2708   1.286       .  A
O2168     Zn2174   2.061       .  S
C2169      O2185   1.284       .  A
C2169      O2182   1.284       .  A
O2170      C2183   1.291       .  A
O2170     Cd2177   2.200       .  S
O2171      C3237   1.292       .  A
O2171     Cd2180   2.116       .  S
O2172      C2186   1.294   1_554  A
O2172     Cd2176   2.136   1_554  S
O2173      C2184   1.285   1_554  A
O2173     Cd2176   2.205   1_554  S
Zn2174     O2185   2.108       .  S
Zn2174     O2187   2.127       .  S
Zn2174     O2179   1.908       .  S
O2175      C2186   1.273       .  A
O2175     Cd2704   2.103       .  S
Cd2176     O2178   2.100   1_556  S
Cd2176     O2703   2.028       .  S
Cd2177     O3753   2.215       .  S
Cd2177     O3238   2.156   1_545  S
Cd2177     O2179   2.039       .  S
O2178      C2188   1.275       .  A
O2179     Cd2700   2.022       .  S
O2179     Cd2180   2.053       .  S
Cd2180     O2699   2.099       .  S
Cd2180     O2182   2.191       .  S
O2181      C3236   1.304   1_556  A
O2181     Cd3749   2.231       .  S
C2183      O2187   1.290       .  A
C2184      C2191   1.526       .  S
C2184      O2692   1.287       .  A
C2188      O3229   1.304   1_554  A
C2189      C2205   1.516       .  S
C2189      O3219   1.295       .  A
C2189      O2190   1.285       .  A
O2190     Cd3225   2.168       .  S
C2191      N2192   1.393   1_556  A
C2191      N2720   1.333       .  A
N2192      C2193   1.406   1_554  A
C2195      N2196   1.341       .  A
N2196      C2715   1.336       .  A
C2197      N2198   1.359       .  A
C2197      N2202   1.385       .  A
C2197      C2231   1.524       .  S
N2198      C2199   1.364       .  A
C2199      N2200   1.342       .  A
C2199      C2401   1.495       .  S
N2200      C2201   1.349       .  A
C2201      N2202   1.387       .  A
C2203      N2204   1.397       .  A
C2203      N2208   1.355       .  A
N2204      C2205   1.398       .  A
C2205      N2206   1.348       .  A
N2206      C2207   1.336       .  A
C2207      N2208   1.342       .  A
C2207      C2380   1.466       .  S
C2209      N2210   1.354       .  A
C2209      N2214   1.354       .  A
C2209      C2408   1.494       .  S
N2210      C2211   1.354       .  A
C2211      N2212   1.349       .  A
C2211      C2373   1.461       .  S
N2212      C2213   1.346       .  A
C2213      N2214   1.358       .  A
C2213      C2429   1.488       .  S
O2215      C2231   1.286       .  A
O2215     Zn2221   2.143       .  S
C2216      O2232   1.288       .  A
C2216      O2229   1.288       .  A
O2217      C2230   1.291       .  A
O2217     Cd2224   2.237       .  S
O2218      C2236   1.298       .  A
O2218     Cd2227   2.186       .  S
O2219      C2757   1.296       .  A
O2219     Cd2223   2.176       .  S
O2220      C2231   1.285       .  A
O2220     Cd2223   2.147       .  S
Zn2221     O2232   2.068       .  S
Zn2221     O2234   2.065       .  S
Zn2221     O2226   1.942       .  S
O2222      C2233   1.282       .  A
O2222     Cd2751   2.154       .  S
Cd2223     O2225   2.118       .  S
Cd2223     O2226   2.047       .  S
Cd2224     O2228   2.220       .  S
Cd2224     O2237   2.135       .  S
Cd2224     O2226   2.051       .  S
O2225      C2235   1.278       .  A
O2226     Cd2227   2.056       .  S
Cd2227     O2746   2.155       .  S
Cd2227     O2229   2.180       .  S
O2228      C2235   1.303       .  A
C2230      C2238   1.543       .  S
C2230      O2234   1.285       .  A
C2233      C2254   1.527       .  S
C2233      O2743   1.296       .  A
C2236      O2237   1.280       .  A
C2238      N2239   1.396       .  A
C2238      N2243   1.354       .  A
N2239      C2240   1.403       .  A
C2240      N2241   1.367       .  A
C2240      C2280   1.537       .  S
N2241      C2242   1.360       .  A
C2242      N2243   1.347       .  A
C2242      C2352   1.490       .  S
C2244      N2245   1.403       .  A
C2244      N2249   1.364       .  A
N2245      C2246   1.401       .  A
C2246      N2247   1.344       .  A
N2247      C2248   1.339       .  A
C2248      N2249   1.356       .  A
C2248      C2317   1.495       .  S
C2250      N2251   1.334       .  A
C2250      N2255   1.388       .  A
N2251      C2252   1.328       .  A
C2252      N2253   1.361       .  A
C2252      C2289   1.492       .  S
N2253      C2254   1.374       .  A
C2254      N2255   1.403       .  A
C2256      N2257   1.348       .  A
C2256      N2261   1.359       .  A
C2256      C2296   1.489       .  S
N2257      C2258   1.342       .  A
C2258      N3307   1.357       .  A
C2258      C2324   1.489       .  S
N2259      C3306   1.357       .  A
N2259      C2260   1.364   1_565  A
C2260      N3309   1.366       .  A
C2260      C2345   1.502       .  S
N2261      C3308   1.369       .  A
O2262      C2278   1.288       .  A
O2262     Zn2268   2.088       .  S
O2264      C2277   1.292       .  A
O2264     Cd2271   2.222   1_455  S
O2265      C2283   1.295   1_545  A
O2265     Cd2274   2.172   1_545  S
O2266      C2280   1.303   1_565  A
O2266     Cd3318   2.220       .  S
O2267      C2278   1.286       .  A
O2267     Cd2270   2.198       .  S
Zn2268     O2279   2.150   1_655  S
Zn2268     O2281   2.103   1_655  S
Zn2268     O2273   1.974       .  S
O2269      C2280   1.288       .  A
O2269     Cd2274   2.163   1_545  S
Cd2270     O3314   2.227       .  S
Cd2270     O2272   2.144       .  S
Cd2270     O2273   2.084       .  S
Cd2271     O2275   2.181       .  S
Cd2271     O3332   2.139       .  S
Cd2271     O2273   2.062       .  S
O2272      C2282   1.281       .  A
O2273     Cd3322   2.042       .  S
Cd2274     O2276   2.153   1_665  S
Cd2274     O3321   2.044       .  S
O2275      C2282   1.299       .  A
C2277      O2281   1.289       .  A
C2283      O2284   1.279       .  A
O2284     Cd3319   2.132       .  S
C2285      C2286   1.404       .  A
C2285      C2290   1.410       .  A
C2285      C2827   1.439       .  S
C2286      C2291   1.489       .  S
C2286      C2287   1.390       .  A
C2287      C2288   1.399       .  A
C2287      C2292   1.438       .  S
C2288      C2289   1.429       .  A
C2288      C2304   1.452       .  S
C2289      C2290   1.409       .  A
C2290      C2293   1.437       .  S
C2291      C2818   1.406       .  A
C2291      C2298   1.409       .  A
C2292      N2309   1.152       .  T
C2293      N2311   1.153       .  T
C2294      C2815   1.407   1_554  A
C2294      C2295   1.411       .  A
C2294      C2299   1.449       .  S
C2295      C2296   1.416       .  A
C2295      C2301   1.446       .  S
C2296      C2297   1.416   1_554  A
C2297      C2822   1.406       .  A
C2297      C2300   1.453       .  S
C2298      C2821   1.406       .  A
C2298      C2302   1.451       .  S
C2299      N2306   1.157       .  T
C2300      N2307   1.157       .  T
C2301      N2305   1.156       .  T
C2302      N2308   1.157       .  T
C2303      C2809   1.438       .  S
C2303      N2312   1.153       .  T
C2304      N2310   1.155       .  T
C2313      C2314   1.405       .  A
C2313      C2318   1.406       .  A
C2313      C2331   1.445       .  S
C2314      C2319   1.513       .  S
C2314      C2315   1.397       .  A
C2315      C2316   1.415       .  A
C2315      C2320   1.448       .  S
C2316      C2317   1.438       .  A
C2316      C2332   1.451       .  S
C2317      C2318   1.423       .  A
C2318      C2321   1.449       .  S
C2319      C2322   1.417       .  A
C2319      C2326   1.404       .  A
C2320      N2337   1.158       .  T
C2321      N2339   1.157       .  T
C2322      C2323   1.403       .  A
C2322      C2327   1.454       .  S
C2323      C2324   1.418       .  A
C2323      C3377   1.448       .  S
C2324      C2325   1.423       .  A
C2325      C2326   1.407       .  A
C2325      C2328   1.448       .  S
C2326      C2330   1.450       .  S
C2327      N2334   1.158       .  T
C2328      N2335   1.155       .  T
C2329      C3371   1.453       .  S
C2329      N2333   1.156       .  T
C2330      N2336   1.158       .  T
C2331      N2340   1.157       .  T
C2332      N2338   1.157       .  T
C2341      C2342   1.407       .  A
C2341      C2346   1.407       .  A
C2341      C2359   1.451       .  S
C2342      C2347   1.491       .  S
C2342      C2343   1.409       .  A
C2343      C2344   1.412       .  A
C2343      C2348   1.447       .  S
C2344      C2345   1.415       .  A
C2344      C2360   1.450   1_545  S
C2345      C2346   1.411       .  A
C2346      C2349   1.441       .  S
C2347      C2350   1.403       .  A
C2347      C2354   1.411       .  A
C2348      N2365   1.156   1_545  T
C2349      N3415   1.154       .  T
C2350      C2351   1.413       .  A
C2350      C2355   1.451       .  S
C2351      C2352   1.421       .  A
C2351      C2357   1.443       .  S
C2352      C2353   1.409       .  A
C2353      C2354   1.407       .  A
C2353      C2356   1.444   1_545  S
C2354      C2358   1.450       .  S
C2355      N2362   1.156       .  T
C2356      N2363   1.154       .  T
C2357      N2361   1.155       .  T
C2358      N2364   1.156   1_545  T
C2359      N2368   1.157       .  T
C2360      N2366   1.157       .  T
N2367      C3397   1.152       .  T
C2369      C2370   1.412       .  A
C2369      C2374   1.402       .  A
C2369      C2387   1.445       .  S
C2370      C2375   1.484       .  S
C2370      C3419   1.406       .  A
C2371      C3418   1.407       .  A
C2371      C2372   1.397       .  A
C2371      C2376   1.452       .  S
C2372      C2373   1.413       .  A
C2372      C2388   1.449       .  S
C2373      C3422   1.403       .  A
C2374      C3421   1.406       .  A
C2374      C2377   1.448       .  S
C2375      C2378   1.413       .  A
C2375      C2382   1.411       .  A
C2376      N2393   1.157       .  T
C2377      N2395   1.155       .  T
C2378      C2379   1.402       .  A
C2378      C2383   1.454       .  S
C2379      C2380   1.413       .  A
C2379      C2385   1.450       .  S
C2380      C2381   1.410       .  A
C2381      C2382   1.401       .  A
C2381      C2384   1.451       .  S
C2382      C2386   1.450       .  S
C2383      N2390   1.157       .  T
C2384      N2391   1.157       .  T
C2385      N2389   1.158       .  T
C2386      N2392   1.157       .  T
C2387      N2396   1.155       .  T
C2388      N2394   1.155       .  T
C2397      C2398   1.408       .  A
C2397      C2402   1.412       .  A
C2397      C2415   1.447       .  S
C2398      C2403   1.486       .  S
C2398      C2399   1.416       .  A
C2399      C2400   1.403       .  A
C2399      C2404   1.445       .  S
C2400      C2401   1.395       .  A
C2400      C2416   1.440       .  S
C2401      C2402   1.415       .  A
C2402      C2405   1.447       .  S
C2403      C2406   1.403       .  A
C2403      C2410   1.397       .  A
C2404      N2421   1.156       .  T
C2405      N2423   1.157       .  T
C2406      C2407   1.398       .  A
C2406      C2411   1.445       .  S
C2407      C2408   1.410       .  A
C2407      C2413   1.441       .  S
C2408      C2409   1.412       .  A
C2409      C2410   1.408       .  A
C2409      C2412   1.442       .  S
C2410      C2414   1.433       .  S
C2411      N2418   1.154       .  T
C2412      N2419   1.158   1_655  T
C2413      N2417   1.152       .  T
C2414      N2420   1.152       .  T
C2415      N2424   1.158       .  T
C2416      N2422   1.155       .  T
C2425      C2426   1.416       .  A
C2425      C2430   1.410       .  A
C2425      C2443   1.451       .  S
C2426      C2431   1.507       .  S
C2426      C2427   1.424       .  A
C2427      C2428   1.404       .  A
C2427      C2432   1.445   1_655  S
C2428      C2429   1.399       .  A
C2428      C2444   1.449   1_655  S
C2429      C2430   1.416       .  A
C2430      C2433   1.450       .  S
C2431      C2434   1.408       .  A
C2431      C2438   1.425       .  A
C2432      N2449   1.156       .  T
C2433      N2451   1.158       .  T
C2435      C2441   1.449       .  S
C2436      C2437   1.404       .  A
C2437      C2438   1.416       .  A
C2437      C2440   1.448       .  S
C2438      C2442   1.446       .  S
C2439      N2446   1.153       .  T
C2440      N2971   1.157       .  T
C2441      N2445   1.156       .  T
C2442      N2448   1.156       .  T
C2443      N2452   1.156       .  T
C2444      N2450   1.156       .  T
N2447      C2964   1.157       .  T
C2453      C2454   1.409       .  A
C2453      C2458   1.406       .  A
C2453      C2471   1.450       .  S
C2454      C2459   1.500       .  S
C2454      C2455   1.428       .  A
C2455      C2456   1.407       .  A
C2455      C2460   1.450       .  S
C2456      C2457   1.401       .  A
C2456      C2472   1.448       .  S
C2457      C2458   1.429       .  A
C2458      C2461   1.454       .  S
C2459      C2462   1.413       .  A
C2459      C2466   1.405       .  A
C2460      N2477   1.157       .  T
C2461      N2479   1.157       .  T
C2462      C2463   1.412       .  A
C2462      C2467   1.448       .  S
C2463      C2464   1.414       .  A
C2463      C2469   1.449       .  S
C2464      C2465   1.410       .  A
C2465      C2466   1.391       .  A
C2465      C2468   1.444       .  S
C2466      C2470   1.442       .  S
C2467      N2474   1.157       .  T
C2468      N2475   1.154       .  T
C2469      N2473   1.157       .  T
C2470      N2476   1.157       .  T
C2471      N2480   1.157       .  T
C2472      N2478   1.157       .  T
C2481      C2482   1.407       .  A
C2481      C2486   1.410       .  A
C2481      C2499   1.450       .  S
C2482      C2487   1.487       .  S
C2482      C2483   1.414       .  A
C2483      C2484   1.397       .  A
C2483      C2488   1.454       .  S
C2484      C2485   1.414       .  A
C2484      C2500   1.448       .  S
C2485      C2486   1.422       .  A
C2486      C2489   1.450       .  S
C2487      C2490   1.415       .  A
C2487      C2494   1.400       .  A
C2488      N2505   1.157       .  T
C2489      N2507   1.157       .  T
C2491      C2492   1.416       .  A
C2491      C2497   1.444       .  S
C2493      C2494   1.391       .  A
C2493      C2496   1.436       .  S
C2494      C2498   1.450       .  S
C2495      N2502   1.157   1_655  T
C2496      N3027   1.154       .  T
C2497      N2501   1.156       .  T
C2498      N2504   1.156       .  T
C2499      N2508   1.157       .  T
C2500      N2506   1.155       .  T
N2503      C3020   1.154       .  T
C2509      C2510   1.410       .  A
C2509      C2514   1.387       .  A
C2509      C2527   1.457       .  S
C2511      C2516   1.445       .  S
C2512      C2513   1.413       .  A
C2513      C2514   1.414       .  A
C2514      C2517   1.452       .  S
C2515      C2518   1.408       .  A
C2515      C2522   1.408       .  A
C2516      N2533   1.157       .  T
C2517      N2535   1.155       .  T
C2518      C2519   1.414       .  A
C2518      C2523   1.445       .  S
C2519      C2520   1.413       .  A
C2519      C2525   1.449       .  S
C2520      C2521   1.423       .  A
C2521      C2522   1.391       .  A
C2521      C3048   1.451       .  S
C2523      N2530   1.156       .  T
C2524      C3045   1.449       .  S
C2524      N2531   1.157       .  T
C2525      N2529   1.157       .  T
C2526      N2532   1.158   1_554  T
C2527      N2536   1.157       .  T
C2528      N3582   1.157       .  T
N2534      C3576   1.158       .  T
C2537      C2538   1.411       .  A
C2537      C2542   1.411       .  A
C2537      C2555   1.452       .  S
C2538      C2543   1.490       .  S
C2538      C2539   1.406       .  A
C2539      C2540   1.397       .  A
C2539      C2544   1.452       .  S
C2540      C2541   1.428       .  A
C2540      C2556   1.452       .  S
C2541      C2542   1.418       .  A
C2542      C2545   1.444       .  S
C2543      C2546   1.402       .  A
C2544      N2561   1.155       .  T
C2545      N2563   1.156       .  T
C2546      C2551   1.452       .  S
C2547      C2548   1.422       .  A
C2547      C2553   1.448       .  S
C2548      C2549   1.409   1_655  A
C2549      C2550   1.408       .  A
C2549      C2552   1.450       .  S
C2551      N2558   1.156       .  T
C2552      N2559   1.156       .  T
C2553      N2557   1.157       .  T
C2554      N2560   1.157       .  T
C2556      N2562   1.155       .  T
C2565      C2566   1.414       .  A
C2565      C2570   1.402       .  A
C2565      C2583   1.444       .  S
C2566      C2571   1.480       .  S
C2566      C2567   1.405       .  A
C2567      C2568   1.399       .  A
C2567      C2572   1.445       .  S
C2568      C2569   1.407       .  A
C2568      C2584   1.448       .  S
C2569      C2570   1.405       .  A
C2570      C2573   1.448       .  S
C2571      C2574   1.411       .  A
C2571      C2578   1.411       .  A
C2572      N2589   1.156       .  T
C2573      N2591   1.157       .  T
C2574      C2575   1.405       .  A
C2574      C2579   1.448       .  S
C2575      C2576   1.407       .  A
C2576      C2577   1.398       .  A
C2577      C2578   1.399       .  A
C2577      C2580   1.444   1_545  S
C2578      C2582   1.445       .  S
C2579      N2586   1.157       .  T
C2580      N2587   1.155       .  T
C2581      N2585   1.157       .  T
C2582      N2588   1.156       .  T
C2583      N2592   1.154       .  T
C2584      N2590   1.156       .  T
C2593      C2594   1.402       .  A
C2593      C2598   1.386       .  A
C2593      C2611   1.452       .  S
C2594      C2599   1.476       .  S
C2594      C2595   1.413       .  A
C2595      C2596   1.409       .  A
C2595      C2600   1.447       .  S
C2596      C2597   1.402       .  A
C2596      C2612   1.441       .  S
C2597      C2598   1.418       .  A
C2598      C2601   1.448       .  S
C2599      C2602   1.414       .  A
C2599      C2606   1.410       .  A
C2600      N2617   1.157       .  T
C2601      N2619   1.156       .  T
C2602      C2603   1.404       .  A
C2602      C2607   1.444       .  S
C2603      C2604   1.402       .  A
C2603      C2609   1.447       .  S
C2604      C2605   1.407       .  A
C2605      C2606   1.395       .  A
C2605      C2608   1.448       .  S
C2606      C2610   1.451       .  S
C2607      N2614   1.155       .  T
C2608      N2615   1.157       .  T
C2609      N2613   1.156       .  T
C2610      N2616   1.156       .  T
C2611      N2620   1.156       .  T
C2612      N2618   1.156       .  T
C2621      N2622   1.392       .  A
C2621      N2626   1.354       .  A
C2621      C2740   1.516       .  S
N2622      C2623   1.394       .  A
C2623      N2624   1.344       .  A
C2623      C2710   1.498       .  S
N2624      C2625   1.335       .  A
C2625      N2626   1.352       .  A
C2625      C3128   1.469       .  S
C2627      N2628   1.353       .  A
C2627      N2632   1.397       .  A
C2627      C2707   1.533       .  S
N2628      C2629   1.356       .  A
C2629      N2630   1.337       .  A
C2629      C3100   1.470       .  S
C2631      C2807   1.504   1_445  S
C2633      N2634   1.395       .  A
C2633      N2638   1.348       .  A
C2633      C2802   1.523       .  S
N2634      C2635   1.399       .  A
C2635      N2636   1.362       .  A
C2635      C2759   1.534       .  S
N2636      C2637   1.350       .  A
C2637      N2638   1.339       .  A
C2637      C3072   1.490       .  S
C2639      N2640   1.364       .  A
C2639      N2644   1.356       .  A
C2639      C3065   1.508       .  S
N2640      C2641   1.367       .  A
C2641      N2642   1.351       .  A
C2641      C3093   1.470       .  S
N2642      C2643   1.330       .  A
C2643      N2644   1.349       .  A
C2643      C3121   1.472       .  S
O2645      C2661   1.277       .  A
O2645     Zn2651   1.985       .  S
C2646      C2680   1.548       .  S
C2646      O2662   1.283       .  A
C2646      O2659   1.290       .  A
O2647      C2660   1.282       .  A
O2647     Cd2654   2.178       .  S
O2648      C2666   1.298       .  A
O2648     Cd2657   2.169       .  S
O2649      C2663   1.298       .  A
O2649     Cd2653   2.174       .  S
O2650      C2661   1.277       .  A
O2650     Cd2653   2.195       .  S
Zn2651     O2662   2.053       .  S
Zn2651     O2664   2.032       .  S
Zn2651     O2656   1.871       .  S
O2652      C2663   1.275       .  A
O2652     Cd2657   2.094       .  S
Cd2653     O2655   2.111       .  S
Cd2653     O2656   2.072       .  S
Cd2654     O2658   2.180       .  S
Cd2654     O2667   2.171       .  S
Cd2654     O2656   2.055       .  S
O2655      C2665   1.282       .  A
O2656     Cd2657   2.036       .  S
Cd2657     O2659   2.253       .  S
O2658      C2665   1.299       .  A
C2660      C2727   1.507       .  S
C2660      O2664   1.282       .  A
C2661      C2774   1.517       .  S
C2663      C2725   1.486       .  S
C2665      C2678   1.516       .  S
C2666      C2770   1.523       .  S
C2666      O2667   1.288       .  A
C2668      N3717   1.346       .  A
C2668      N2673   1.391       .  A
C2668      C2787   1.513   1_545  S
N2669      C3716   1.346       .  A
N2669      C2670   1.345       .  A
C2670      N2671   1.354       .  A
C2670      C3037   1.463       .  S
N2671      C3720   1.358       .  A
C2672      N3719   1.357       .  A
C2672      N2673   1.395       .  A
C2672      C2712   1.510       .  S
C2674      N2675   1.349       .  A
C2674      N2679   1.391       .  A
C2674      C2693   1.534       .  S
N2675      C2676   1.353       .  A
C2676      N2677   1.346       .  A
C2676      C3009   1.490       .  S
N2677      C2678   1.356       .  A
C2678      N2679   1.396       .  A
C2680      N2681   1.351       .  A
C2680      N2685   1.407       .  A
N2681      C2682   1.344       .  A
C2682      N2683   1.331       .  A
C2682      C2988   1.464       .  S
N2683      C2684   1.345       .  A
C2684      N2685   1.412       .  A
C2684      C2806   1.518       .  S
C2686      N2687   1.370       .  A
C2686      N2691   1.347   1_556  A
C2686      C2981   1.499       .  S
N2687      C2688   1.367   1_556  A
C2688      C3016   1.493   1_554  S
N2689      C2690   1.353       .  A
C2690      C3044   1.476       .  S
O2692     Zn2698   2.053       .  S
C2693      O2709   1.284       .  A
C2693      O2706   1.287       .  A
O2694      C2707   1.291       .  A
O2694     Cd2701   2.202       .  S
O2695      C3761   1.296       .  A
O2695     Cd2704   2.134       .  S
O2696      C2710   1.294       .  A
O2696     Cd2700   2.139       .  S
O2697      C2708   1.286       .  A
O2697     Cd2700   2.207       .  S
Zn2698     O2709   2.101       .  S
Zn2698     O2711   2.128       .  S
Zn2698     O2703   1.908       .  S
O2699      C2710   1.272       .  A
Cd2700     O2702   2.098       .  S
Cd2701     O3229   2.221       .  S
Cd2701     O3762   2.159   1_545  S
Cd2701     O2703   2.038       .  S
O2702      C2712   1.275       .  A
O2703     Cd2704   2.046       .  S
Cd2704     O2706   2.204       .  S
O2705      C3760   1.303       .  A
O2705     Cd3225   2.222       .  S
C2707      O2711   1.289       .  A
C2708      C2715   1.526       .  S
C2712      O3753   1.302       .  A
C2713      C2729   1.513       .  S
C2713      O3743   1.292       .  A
C2713      O2714   1.286       .  A
O2714     Cd3749   2.169       .  S
C2715      N2716   1.393       .  A
N2716      C2717   1.405       .  A
C2719      N2720   1.335       .  A
C2721      N2722   1.358       .  A
C2721      N2726   1.386       .  A
C2721      C2755   1.523       .  S
N2722      C2723   1.363       .  A
C2723      N2724   1.342       .  A
C2723      C2925   1.494       .  S
N2724      C2725   1.348       .  A
C2725      N2726   1.388       .  A
C2727      N2728   1.395       .  A
C2727      N2732   1.353       .  A
N2728      C2729   1.395       .  A
C2729      N2730   1.351       .  A
N2730      C2731   1.338       .  A
C2731      N2732   1.338       .  A
C2731      C2904   1.468       .  S
C2733      N2734   1.355       .  A
C2733      N2738   1.356       .  A
C2733      C2932   1.495       .  S
N2734      C2735   1.355       .  A
C2735      N2736   1.351       .  A
C2735      C2897   1.464       .  S
N2736      C2737   1.348       .  A
C2737      N2738   1.358       .  A
C2737      C2953   1.490       .  S
O2739      C2755   1.285       .  A
O2739     Zn2745   2.139       .  S
C2740      O2756   1.287       .  A
C2740      O2753   1.290       .  A
O2741      C2754   1.294       .  A
O2741     Cd2748   2.245       .  S
O2742      C2760   1.301       .  A
O2742     Cd2751   2.201       .  S
O2743     Cd2747   2.171       .  S
O2744      C2755   1.285       .  A
O2744     Cd2747   2.148       .  S
Zn2745     O2756   2.067       .  S
Zn2745     O2758   2.067       .  S
Zn2745     O2750   1.950       .  S
O2746      C2757   1.282       .  A
Cd2747     O2749   2.122       .  S
Cd2747     O2750   2.047       .  S
Cd2748     O2752   2.216       .  S
Cd2748     O2761   2.137       .  S
Cd2748     O2750   2.054       .  S
O2749      C2759   1.281       .  A
O2750     Cd2751   2.059       .  S
Cd2751     O2753   2.190       .  S
O2752      C2759   1.301       .  A
C2754      C2762   1.546       .  S
C2754      O2758   1.285       .  A
C2757      C2778   1.530   1_554  S
C2760      O2761   1.281       .  A
C2762      N2763   1.395       .  A
C2762      N2767   1.358       .  A
N2763      C2764   1.403       .  A
C2764      N2765   1.370       .  A
C2764      C2804   1.540       .  S
N2765      C2766   1.362       .  A
C2766      N2767   1.349       .  A
C2766      C2876   1.499       .  S
C2768      N2769   1.403       .  A
C2768      N2773   1.363       .  A
N2769      C2770   1.399       .  A
C2770      N2771   1.342       .  A
N2771      C2772   1.338       .  A
C2772      N2773   1.352       .  A
C2772      C2841   1.491       .  S
C2774      N2775   1.333       .  A
C2774      N2779   1.389       .  A
N2775      C2776   1.326       .  A
C2776      N2777   1.362       .  A
C2776      C2813   1.491       .  S
N2777      C2778   1.375       .  A
C2778      N2779   1.404       .  A
C2780      N2781   1.347       .  A
C2780      N2785   1.356       .  A
C2780      C2820   1.486       .  S
N2781      C2782   1.341       .  A
C2782      N3831   1.357       .  A
C2782      C2848   1.484       .  S
N2783      C3830   1.356       .  A
N2783      C2784   1.363   1_565  A
C2784      N3833   1.369       .  A
C2784      C2869   1.502       .  S
N2785      C3832   1.367       .  A
O2786      C2802   1.286       .  A
O2786     Zn2792   2.075   1_655  S
O2788      C2801   1.291       .  A
O2788     Cd2795   2.217   1_455  S
O2789      C2807   1.294   1_545  A
O2789     Cd2798   2.164   1_545  S
O2790      C2804   1.303   1_565  A
O2790     Cd3842   2.231       .  S
O2791      C2802   1.287       .  A
O2791     Cd2794   2.199       .  S
Zn2792     O2803   2.138       .  S
Zn2792     O2805   2.086       .  S
Zn2792     O2797   1.970   1_455  S
O2793      C2804   1.288       .  A
O2793     Cd2798   2.165   1_545  S
Cd2794     O3838   2.235       .  S
Cd2794     O2796   2.156       .  S
Cd2794     O2797   2.086       .  S
Cd2795     O2799   2.180       .  S
Cd2795     O3856   2.142       .  S
Cd2795     O2797   2.065       .  S
O2796      C2806   1.281       .  A
O2797     Cd3846   2.041       .  S
Cd2798     O2800   2.149   1_665  S
Cd2798     O3845   2.043       .  S
O2799      C2806   1.301       .  A
C2801      O2805   1.288       .  A
C2807      O2808   1.280       .  A
O2808     Cd3843   2.135       .  S
C2809      C2810   1.405   1_554  A
C2809      C2814   1.409       .  A
C2810      C2815   1.491       .  S
C2810      C2811   1.391       .  A
C2811      C2812   1.402       .  A
C2811      C2816   1.439       .  S
C2812      C2813   1.431       .  A
C2812      C2828   1.452       .  S
C2813      C2814   1.408   1_556  A
C2814      C2817   1.440       .  S
C2815      C2822   1.410       .  A
C2816      N2833   1.151       .  T
C2817      N2835   1.154       .  T
C2818      C2819   1.411       .  A
C2818      C2823   1.449       .  S
C2819      C2820   1.417       .  A
C2819      C2825   1.446       .  S
C2820      C2821   1.415       .  A
C2821      C2824   1.452       .  S
C2822      C2826   1.453       .  S
C2823      N2830   1.158       .  T
C2824      N2831   1.158       .  T
C2825      N2829   1.157       .  T
C2826      N2832   1.156       .  T
C2827      N2836   1.152       .  T
C2828      N2834   1.157       .  T
C2837      C2838   1.401       .  A
C2837      C2842   1.405       .  A
C2837      C2855   1.444       .  S
C2838      C2843   1.519       .  S
C2838      C2839   1.398       .  A
C2839      C2840   1.415       .  A
C2839      C2844   1.447       .  S
C2840      C2841   1.439       .  A
C2840      C2856   1.452       .  S
C2841      C2842   1.427       .  A
C2842      C2845   1.448       .  S
C2843      C2846   1.421       .  A
C2843      C2850   1.411       .  A
C2844      N2861   1.158       .  T
C2845      N2863   1.157       .  T
C2846      C2847   1.404       .  A
C2846      C2851   1.456       .  S
C2847      C2848   1.416       .  A
C2847      C3901   1.450       .  S
C2848      C2849   1.417       .  A
C2849      C2850   1.408       .  A
C2849      C2852   1.449       .  S
C2850      C2854   1.449       .  S
C2851      N2858   1.158       .  T
C2852      N2859   1.156       .  T
C2853      C3895   1.447       .  S
C2853      N2857   1.154       .  T
C2854      N2860   1.157       .  T
C2855      N2864   1.157       .  T
C2856      N2862   1.156       .  T
C2865      C2866   1.411       .  A
C2865      C2870   1.406       .  A
C2865      C2883   1.449       .  S
C2866      C2871   1.495       .  S
C2866      C2867   1.411       .  A
C2867      C2868   1.414       .  A
C2867      C2872   1.449       .  S
C2868      C2869   1.416       .  A
C2868      C2884   1.451   1_545  S
C2869      C2870   1.406       .  A
C2870      C2873   1.442       .  S
C2871      C2874   1.402       .  A
C2871      C2878   1.411       .  A
C2872      N2889   1.156   1_545  T
C2873      N3939   1.154       .  T
C2874      C2875   1.415       .  A
C2874      C2879   1.451       .  S
C2875      C2876   1.422       .  A
C2875      C2881   1.442       .  S
C2876      C2877   1.411       .  A
C2877      C2878   1.411       .  A
C2877      C2880   1.444   1_545  S
C2878      C2882   1.449   1_545  S
C2879      N2886   1.157       .  T
C2880      N2887   1.155       .  T
C2881      N2885   1.155       .  T
C2882      N2888   1.155       .  T
C2883      N2892   1.157       .  T
C2884      N2890   1.158       .  T
N2891      C3921   1.155       .  T
C2893      C2894   1.412       .  A
C2893      C2898   1.404       .  A
C2893      C2911   1.448       .  S
C2894      C2899   1.487       .  S
C2894      C3943   1.407       .  A
C2895      C3942   1.408       .  A
C2895      C2896   1.399       .  A
C2895      C2900   1.450       .  S
C2896      C2897   1.412       .  A
C2896      C2912   1.448       .  S
C2897      C3946   1.402       .  A
C2898      C3945   1.411       .  A
C2898      C2901   1.447       .  S
C2899      C2902   1.413       .  A
C2899      C2906   1.411       .  A
C2900      N2917   1.156       .  T
C2901      N2919   1.155       .  T
C2902      C2903   1.401       .  A
C2902      C2907   1.452       .  S
C2903      C2904   1.411       .  A
C2903      C2909   1.451       .  S
C2904      C2905   1.413       .  A
C2905      C2906   1.403       .  A
C2905      C2908   1.450       .  S
C2906      C2910   1.452       .  S
C2907      N2914   1.158       .  T
C2908      N2915   1.158       .  T
C2909      N2913   1.157       .  T
C2910      N2916   1.156       .  T
C2911      N2920   1.155       .  T
C2912      N2918   1.154       .  T
C2921      C2922   1.406       .  A
C2921      C2926   1.411       .  A
C2921      C2939   1.447       .  S
C2922      C2927   1.484       .  S
C2922      C2923   1.414       .  A
C2923      C2924   1.401       .  A
C2923      C2928   1.445       .  S
C2924      C2925   1.397       .  A
C2924      C2940   1.440       .  S
C2925      C2926   1.417       .  A
C2926      C2929   1.448       .  S
C2927      C2930   1.402       .  A
C2927      C2934   1.396       .  A
C2928      N2945   1.155       .  T
C2929      N2947   1.156       .  T
C2930      C2931   1.399       .  A
C2930      C2935   1.449       .  S
C2931      C2932   1.413       .  A
C2931      C2937   1.441       .  S
C2932      C2933   1.414       .  A
C2933      C2934   1.407       .  A
C2933      C2936   1.444       .  S
C2934      C2938   1.434       .  S
C2935      N2942   1.155       .  T
C2936      N2943   1.156   1_655  T
C2937      N2941   1.154       .  T
C2938      N2944   1.153       .  T
C2939      N2948   1.157       .  T
C2940      N2946   1.154       .  T
C2949      C2950   1.417       .  A
C2949      C2954   1.410       .  A
C2949      C2967   1.451       .  S
C2950      C2955   1.508       .  S
C2950      C2951   1.424       .  A
C2951      C2952   1.406       .  A
C2951      C2956   1.445   1_655  S
C2952      C2953   1.399       .  A
C2952      C2968   1.447   1_655  S
C2953      C2954   1.414       .  A
C2954      C2957   1.449       .  S
C2955      C2958   1.409       .  A
C2955      C2962   1.426       .  A
C2956      N2973   1.156       .  T
C2957      N2975   1.157       .  T
C2959      C2965   1.452       .  S
C2960      C2961   1.403       .  A
C2961      C2962   1.415       .  A
C2961      C2964   1.449       .  S
C2962      C2966   1.445       .  S
C2963      N2970   1.153       .  T
C2965      N2969   1.157       .  T
C2966      N2972   1.156       .  T
C2967      N2976   1.157       .  T
C2968      N2974   1.156       .  T
C2977      C2978   1.405       .  A
C2977      C2982   1.401       .  A
C2977      C2995   1.450       .  S
C2978      C2983   1.495       .  S
C2978      C2979   1.431       .  A
C2979      C2980   1.408       .  A
C2979      C2984   1.451       .  S
C2980      C2981   1.401       .  A
C2980      C2996   1.449       .  S
C2981      C2982   1.429       .  A
C2982      C2985   1.454   1_556  S
C2983      C2986   1.409       .  A
C2983      C2990   1.407       .  A
C2984      N3001   1.157       .  T
C2985      N3003   1.157       .  T
C2986      C2987   1.410       .  A
C2986      C2991   1.449       .  S
C2987      C2988   1.418       .  A
C2987      C2993   1.450       .  S
C2988      C2989   1.407       .  A
C2989      C2990   1.390       .  A
C2989      C2992   1.447       .  S
C2990      C2994   1.444       .  S
C2991      N2998   1.158       .  T
C2992      N2999   1.156       .  T
C2993      N2997   1.158       .  T
C2994      N3000   1.157       .  T
C2995      N3004   1.157       .  T
C2996      N3002   1.158       .  T
C3005      C3006   1.407       .  A
C3005      C3010   1.412       .  A
C3005      C3023   1.450       .  S
C3006      C3011   1.485       .  S
C3006      C3007   1.415       .  A
C3007      C3008   1.395       .  A
C3007      C3012   1.455   1_556  S
C3008      C3009   1.409       .  A
C3008      C3024   1.446       .  S
C3009      C3010   1.420       .  A
C3010      C3013   1.449       .  S
C3011      C3014   1.417       .  A
C3011      C3018   1.398   1_556  A
C3012      N3029   1.157       .  T
C3013      N3031   1.157       .  T
C3015      C3016   1.415       .  A
C3015      C3021   1.446       .  S
C3017      C3018   1.389       .  A
C3017      C3020   1.435       .  S
C3018      C3022   1.452       .  S
C3019      N3026   1.158   1_655  T
C3021      N3025   1.156       .  T
C3022      N3028   1.157       .  T
C3023      N3032   1.157       .  T
C3024      N3030   1.154   1_556  T
C3033      C3034   1.416       .  A
C3033      C3038   1.388       .  A
C3033      C3051   1.457       .  S
C3035      C3040   1.444       .  S
C3036      C3037   1.409       .  A
C3037      C3038   1.408       .  A
C3038      C3041   1.452       .  S
C3039      C3042   1.411       .  A
C3039      C3046   1.405       .  A
C3040      N3057   1.157       .  T
C3041      N3059   1.156       .  T
C3042      C3043   1.415       .  A
C3042      C3047   1.444       .  S
C3043      C3044   1.413       .  A
C3043      C3049   1.449       .  S
C3044      C3045   1.422       .  A
C3045      C3046   1.391       .  A
C3047      N3054   1.156       .  T
C3048      N3055   1.156   1_554  T
C3049      N3053   1.157       .  T
C3050      N3056   1.157       .  T
C3051      N3060   1.157       .  T
C3052      N4106   1.157       .  T
N3058      C4100   1.157       .  T
C3061      C3062   1.409       .  A
C3061      C3066   1.414       .  A
C3061      C3079   1.451       .  S
C3062      C3067   1.494       .  S
C3062      C3063   1.405       .  A
C3063      C3064   1.397       .  A
C3063      C3068   1.447       .  S
C3064      C3065   1.427       .  A
C3064      C3080   1.453       .  S
C3065      C3066   1.420       .  A
C3066      C3069   1.441       .  S
C3067      C3070   1.403       .  A
C3068      N3085   1.154       .  T
C3069      N3087   1.155       .  T
C3070      C3075   1.452       .  S
C3071      C3072   1.421       .  A
C3071      C3077   1.445       .  S
C3072      C3073   1.406   1_655  A
C3073      C3074   1.409       .  A
C3073      C3076   1.450       .  S
C3075      N3082   1.156       .  T
C3076      N3083   1.156   1_455  T
C3077      N3081   1.156       .  T
C3078      N3084   1.157       .  T
C3080      N3086   1.155       .  T
C3089      C3090   1.414       .  A
C3089      C3094   1.402       .  A
C3089      C3107   1.447       .  S
C3090      C3095   1.477       .  S
C3090      C3091   1.403       .  A
C3091      C3092   1.398       .  A
C3091      C3096   1.447       .  S
C3092      C3093   1.411       .  A
C3092      C3108   1.449       .  S
C3093      C3094   1.407       .  A
C3094      C3097   1.448       .  S
C3095      C3098   1.409       .  A
C3095      C3102   1.409       .  A
C3096      N3113   1.155       .  T
C3097      N3115   1.157       .  T
C3098      C3099   1.403       .  A
C3098      C3103   1.449       .  S
C3099      C3100   1.407       .  A
C3100      C3101   1.398       .  A
C3101      C3102   1.401       .  A
C3101      C3104   1.443   1_545  S
C3102      C3106   1.444       .  S
C3103      N3110   1.157       .  T
C3104      N3111   1.156       .  T
C3105      N3109   1.158       .  T
C3106      N3112   1.156       .  T
C3107      N3116   1.155       .  T
C3108      N3114   1.156       .  T
C3117      C3118   1.402       .  A
C3117      C3122   1.383       .  A
C3117      C3135   1.453       .  S
C3118      C3123   1.474       .  S
C3118      C3119   1.415       .  A
C3119      C3120   1.412       .  A
C3119      C3124   1.448       .  S
C3120      C3121   1.404       .  A
C3120      C3136   1.444       .  S
C3121      C3122   1.415       .  A
C3122      C3125   1.447       .  S
C3123      C3126   1.413       .  A
C3123      C3130   1.411       .  A
C3124      N3141   1.157       .  T
C3125      N3143   1.157       .  T
C3126      C3127   1.403       .  A
C3126      C3131   1.442       .  S
C3127      C3128   1.398       .  A
C3127      C3133   1.444       .  S
C3128      C3129   1.406       .  A
C3129      C3130   1.397       .  A
C3129      C3132   1.447       .  S
C3130      C3134   1.452       .  S
C3131      N3138   1.155       .  T
C3132      N3139   1.157       .  T
C3133      N3137   1.156       .  T
C3134      N3140   1.157       .  T
C3135      N3144   1.157       .  T
C3136      N3142   1.156       .  T
C3145      N3146   1.394       .  A
C3145      N3150   1.351       .  A
C3145      C3264   1.516       .  S
N3146      C3147   1.397       .  A
C3147      N3148   1.343       .  A
C3147      C3234   1.502   1_554  S
N3148      C3149   1.335       .  A
C3149      N3150   1.350       .  A
C3149      C3652   1.469       .  S
C3151      N3152   1.350       .  A
C3151      N3156   1.396       .  A
C3151      C3231   1.528       .  S
N3152      C3153   1.353       .  A
C3153      N3154   1.337       .  A
C3153      C3624   1.469       .  S
C3155      C3331   1.506   1_455  S
C3157      N3158   1.393       .  A
C3157      N3162   1.345       .  A
C3157      C3326   1.522       .  S
N3158      C3159   1.397       .  A
C3159      N3160   1.363       .  A
C3159      C3283   1.529       .  S
N3160      C3161   1.349       .  A
C3161      N3162   1.336       .  A
C3161      C3596   1.487       .  S
C3163      N3164   1.366       .  A
C3163      N3168   1.354       .  A
C3163      C3589   1.507       .  S
N3164      C3165   1.369       .  A
C3165      N3166   1.349       .  A
C3165      C3617   1.471       .  S
N3166      C3167   1.328       .  A
C3167      N3168   1.347       .  A
C3167      C3645   1.472       .  S
O3169      C3185   1.276       .  A
O3169     Zn3175   1.990       .  S
C3170      C3204   1.541       .  S
C3170      O3186   1.281       .  A
C3170      O3183   1.292       .  A
O3171      C3184   1.283       .  A
O3171     Cd3178   2.182       .  S
O3172      C3190   1.301       .  A
O3172     Cd3181   2.193       .  S
O3173      C3187   1.297       .  A
O3173     Cd3177   2.166       .  S
O3174      C3185   1.278       .  A
O3174     Cd3177   2.195       .  S
Zn3175     O3186   2.040       .  S
Zn3175     O3188   2.029       .  S
Zn3175     O3180   1.874       .  S
O3176      C3187   1.277       .  A
O3176     Cd3181   2.098       .  S
Cd3177     O3179   2.102       .  S
Cd3177     O3180   2.075       .  S
Cd3178     O3182   2.186       .  S
Cd3178     O3191   2.178       .  S
Cd3178     O3180   2.050       .  S
O3179      C3189   1.280       .  A
O3180     Cd3181   2.034       .  S
Cd3181     O3183   2.250       .  S
O3182      C3189   1.302       .  A
C3184      C3251   1.508       .  S
C3184      O3188   1.280       .  A
C3185      C3298   1.516       .  S
C3187      C3249   1.485       .  S
C3189      C3202   1.514       .  S
C3190      C3294   1.533       .  S
C3190      O3191   1.288       .  A
C3192      N3197   1.394       .  A
C3192      C3311   1.518       .  S
N3193      C3194   1.347       .  A
C3194      N3195   1.353       .  A
C3194      C3561   1.462   1_545  S
C3196      N3197   1.398       .  A
C3196      C3236   1.521       .  S
C3198      N3199   1.347       .  A
C3198      N3203   1.391       .  A
C3198      C3217   1.533       .  S
N3199      C3200   1.351       .  A
C3200      N3201   1.343       .  A
C3200      C3533   1.489       .  S
N3201      C3202   1.350       .  A
C3202      N3203   1.397       .  A
C3204      N3205   1.352       .  A
C3204      N3209   1.402       .  A
N3205      C3206   1.346       .  A
C3206      N3207   1.334       .  A
C3206      C3512   1.472       .  S
N3207      C3208   1.349       .  A
C3208      N3209   1.408       .  A
C3208      C3330   1.512       .  S
C3210      N3211   1.370       .  A
C3210      N3215   1.346       .  A
C3210      C3505   1.499       .  S
N3211      C3212   1.367       .  A
C3212      N3737   1.360       .  A
C3212      C3540   1.495       .  S
N3213      C3736   1.359       .  A
N3213      C3214   1.351       .  A
C3214      N3739   1.341       .  A
C3214      C3568   1.478       .  S
N3215      C3738   1.340       .  A
O3216      C3756   1.285       .  A
O3216     Zn3222   2.055       .  S
C3217      O3233   1.285       .  A
C3217      O3230   1.285       .  A
O3218      C3231   1.290       .  A
O3218     Cd3225   2.198       .  S
O3219     Cd3228   2.126       .  S
O3220      C3234   1.296   1_554  A
O3220     Cd3224   2.147   1_554  S
O3221      C3232   1.284   1_554  A
O3221     Cd3224   2.200   1_554  S
Zn3222     O3233   2.107       .  S
Zn3222     O3235   2.124       .  S
Zn3222     O3227   1.910       .  S
O3223      C3234   1.271       .  A
O3223     Cd3752   2.101       .  S
Cd3224     O3226   2.110   1_556  S
Cd3224     O3751   2.029       .  S
Cd3225     O3227   2.043       .  S
O3226      C3236   1.278       .  A
O3227     Cd3748   2.028       .  S
O3227     Cd3228   2.055       .  S
Cd3228     O3747   2.117       .  S
Cd3228     O3230   2.194       .  S
C3231      O3235   1.289       .  A
C3232      C3239   1.525       .  S
C3232      O3740   1.287       .  A
C3237      C3253   1.509   1_545  S
C3237      O3238   1.283   1_545  A
C3239      N3240   1.392   1_556  A
C3239      N3768   1.330       .  A
N3240      C3241   1.406   1_554  A
C3243      N3244   1.339       .  A
N3244      C3763   1.336       .  A
C3245      N3246   1.359       .  A
C3245      N3250   1.385       .  A
C3245      C3279   1.525       .  S
N3246      C3247   1.365       .  A
C3247      N3248   1.342       .  A
C3247      C3449   1.494       .  S
N3248      C3249   1.349       .  A
C3249      N3250   1.388       .  A
C3251      N3252   1.394       .  A
C3251      N3256   1.354       .  A
N3252      C3253   1.394       .  A
C3253      N3254   1.348       .  A
N3254      C3255   1.335       .  A
C3255      N3256   1.340       .  A
C3255      C3428   1.465       .  S
C3257      N3258   1.355       .  A
C3257      N3262   1.355       .  A
C3257      C3456   1.497       .  S
N3258      C3259   1.356       .  A
C3259      N3260   1.351       .  A
C3259      C3421   1.465       .  S
N3260      C3261   1.347       .  A
C3261      N3262   1.358       .  A
C3261      C3477   1.488       .  S
O3263      C3279   1.284       .  A
O3263     Zn3269   2.141       .  S
C3264      O3280   1.289       .  A
C3264      O3277   1.290       .  A
O3265      C3278   1.294       .  A
O3265     Cd3272   2.253       .  S
O3266      C3284   1.300       .  A
O3266     Cd3275   2.205       .  S
O3267      C3805   1.294       .  A
O3267     Cd3271   2.172       .  S
O3268      C3279   1.284       .  A
O3268     Cd3271   2.149       .  S
Zn3269     O3280   2.071       .  S
Zn3269     O3282   2.042       .  S
Zn3269     O3274   1.949       .  S
O3270      C3281   1.286       .  A
O3270     Cd3799   2.162       .  S
Cd3271     O3273   2.109       .  S
Cd3271     O3274   2.050       .  S
Cd3272     O3276   2.207       .  S
Cd3272     O3285   2.152       .  S
Cd3272     O3274   2.055       .  S
O3273      C3283   1.280       .  A
O3274     Cd3275   2.063       .  S
Cd3275     O3794   2.158       .  S
Cd3275     O3277   2.192       .  S
O3276      C3283   1.299       .  A
C3278      C3286   1.543       .  S
C3278      O3282   1.282       .  A
C3281      C3302   1.535       .  S
C3281      O3791   1.293       .  A
C3284      O3285   1.284       .  A
C3286      N3287   1.394       .  A
C3286      N3291   1.357       .  A
N3287      C3288   1.402       .  A
C3288      N3289   1.368       .  A
C3288      C3328   1.536       .  S
N3289      C3290   1.361       .  A
C3290      N3291   1.348       .  A
C3290      C3400   1.497       .  S
C3292      N3293   1.407       .  A
C3292      N3297   1.361       .  A
N3293      C3294   1.404       .  A
C3294      N3295   1.342       .  A
N3295      C3296   1.339       .  A
C3296      N3297   1.352       .  A
C3296      C3365   1.485       .  S
C3298      N3299   1.336       .  A
C3298      N3303   1.387       .  A
N3299      C3300   1.325       .  A
C3300      N3301   1.366       .  A
C3300      C3337   1.500       .  S
N3301      C3302   1.384       .  A
C3302      N3303   1.400       .  A
C3304      N3305   1.349       .  A
C3304      N3309   1.357   1_565  A
C3304      C3344   1.488       .  S
N3305      C3306   1.341       .  A
C3306      C3372   1.483       .  S
N3307      C3308   1.365       .  A
C3308      C3393   1.503       .  S
O3310      C3326   1.287       .  A
O3310     Zn3316   2.084       .  S
O3312      C3325   1.291       .  A
O3312     Cd3319   2.216   1_455  S
O3313      C3331   1.293       .  A
O3313     Cd3322   2.158       .  S
O3314      C3328   1.303       .  A
O3315      C3326   1.285       .  A
O3315     Cd3318   2.189       .  S
Zn3316     O3327   2.143   1_655  S
Zn3316     O3329   2.103   1_655  S
Zn3316     O3321   1.968       .  S
O3317      C3328   1.286       .  A
O3317     Cd3322   2.153       .  S
Cd3318     O3320   2.151       .  S
Cd3318     O3321   2.087       .  S
Cd3319     O3323   2.171       .  S
Cd3319     O3321   2.063       .  S
O3320      C3330   1.281       .  A
Cd3322     O3324   2.148   1_655  S
O3323      C3330   1.298       .  A
C3325      O3329   1.289       .  A
C3331      O3332   1.281       .  A
C3333      C3334   1.406       .  A
C3333      C3338   1.411       .  A
C3333      C3875   1.438       .  S
C3334      C3339   1.495       .  S
C3334      C3335   1.392       .  A
C3335      C3336   1.406       .  A
C3335      C3340   1.440       .  S
C3336      C3337   1.433       .  A
C3336      C3352   1.451       .  S
C3337      C3338   1.407       .  A
C3338      C3341   1.437       .  S
C3339      C3866   1.407       .  A
C3339      C3346   1.410       .  A
C3340      N3357   1.153       .  T
C3341      N3359   1.153       .  T
C3342      C3863   1.405   1_554  A
C3342      C3343   1.410       .  A
C3342      C3347   1.450       .  S
C3343      C3344   1.417       .  A
C3343      C3349   1.446   1_565  S
C3344      C3345   1.417   1_554  A
C3345      C3870   1.405       .  A
C3345      C3348   1.453       .  S
C3346      C3869   1.406       .  A
C3346      C3350   1.451       .  S
C3347      N3354   1.157       .  T
C3348      N3355   1.157       .  T
C3349      N3353   1.156       .  T
C3350      N3356   1.156       .  T
C3351      C3857   1.438       .  S
C3351      N3360   1.153       .  T
C3352      N3358   1.157       .  T
C3361      C3362   1.402       .  A
C3361      C3366   1.404       .  A
C3361      C3379   1.445       .  S
C3362      C3367   1.522       .  S
C3362      C3363   1.399       .  A
C3363      C3364   1.414       .  A
C3363      C3368   1.444       .  S
C3364      C3365   1.435       .  A
C3364      C3380   1.451       .  S
C3365      C3366   1.423       .  A
C3366      C3369   1.445       .  S
C3367      C3370   1.424       .  A
C3367      C3374   1.415       .  A
C3368      N3385   1.157       .  T
C3369      N3387   1.155       .  T
C3370      C3371   1.404       .  A
C3370      C3375   1.453       .  S
C3371      C3372   1.413       .  A
C3372      C3373   1.416       .  A
C3373      C3374   1.410       .  A
C3373      C3376   1.447       .  S
C3374      C3378   1.452       .  S
C3375      N3382   1.158       .  T
C3376      N3383   1.156       .  T
C3377      N3381   1.156       .  T
C3378      N3384   1.157       .  T
C3379      N3388   1.157       .  T
C3380      N3386   1.157       .  T
C3389      C3390   1.409       .  A
C3389      C3394   1.406       .  A
C3389      C3407   1.449       .  S
C3390      C3395   1.495       .  S
C3390      C3391   1.412       .  A
C3391      C3392   1.414       .  A
C3391      C3396   1.446       .  S
C3392      C3393   1.413       .  A
C3392      C3408   1.450       .  S
C3393      C3394   1.406       .  A
C3394      C3397   1.438       .  S
C3395      C3398   1.405       .  A
C3395      C3402   1.411       .  A
C3396      N3413   1.156       .  T
C3398      C3399   1.416       .  A
C3398      C3403   1.450       .  S
C3399      C3400   1.421       .  A
C3399      C3405   1.443       .  S
C3400      C3401   1.410       .  A
C3401      C3402   1.410       .  A
C3401      C3404   1.444       .  S
C3402      C3406   1.450       .  S
C3403      N3410   1.156       .  T
C3404      N3411   1.155       .  T
C3405      N3409   1.156       .  T
C3406      N3412   1.157       .  T
C3407      N3416   1.157       .  T
C3408      N3414   1.158       .  T
C3417      C3418   1.412       .  A
C3417      C3422   1.401       .  A
C3417      C3435   1.444   1_545  S
C3418      C3423   1.482       .  S
C3419      C3420   1.398       .  A
C3419      C3424   1.452       .  S
C3420      C3421   1.414       .  A
C3420      C3436   1.447       .  S
C3422      C3425   1.446   1_545  S
C3423      C3426   1.413       .  A
C3423      C3430   1.411       .  A
C3424      N3441   1.157       .  T
C3425      N3443   1.155       .  T
C3426      C3427   1.400       .  A
C3426      C3431   1.453       .  S
C3427      C3428   1.412   1_545  A
C3427      C3433   1.452       .  S
C3428      C3429   1.411       .  A
C3429      C3430   1.401   1_565  A
C3429      C3432   1.451       .  S
C3430      C3434   1.452       .  S
C3431      N3438   1.157       .  T
C3432      N3439   1.157       .  T
C3433      N3437   1.158       .  T
C3434      N3440   1.157   1_545  T
C3435      N3444   1.154       .  T
C3436      N3442   1.155       .  T
C3445      C3446   1.407       .  A
C3445      C3450   1.411       .  A
C3445      C3463   1.447       .  S
C3446      C3451   1.485       .  S
C3446      C3447   1.417       .  A
C3447      C3448   1.402       .  A
C3447      C3452   1.445       .  S
C3448      C3449   1.394       .  A
C3448      C3464   1.439       .  S
C3449      C3450   1.415       .  A
C3450      C3453   1.446       .  S
C3451      C3454   1.403       .  A
C3451      C3458   1.397       .  A
C3452      N3469   1.156       .  T
C3453      N3471   1.157       .  T
C3454      C3455   1.399       .  A
C3454      C3459   1.448       .  S
C3455      C3456   1.412       .  A
C3455      C3461   1.443       .  S
C3456      C3457   1.414       .  A
C3457      C3458   1.408       .  A
C3457      C3460   1.444       .  S
C3458      C3462   1.434       .  S
C3459      N3466   1.155       .  T
C3460      N3467   1.156   1_655  T
C3461      N3465   1.154       .  T
C3462      N3468   1.154       .  T
C3463      N3472   1.158       .  T
C3464      N3470   1.155       .  T
C3473      C3474   1.418       .  A
C3473      C3478   1.411       .  A
C3473      C3491   1.451       .  S
C3474      C3479   1.506       .  S
C3474      C3475   1.424       .  A
C3475      C3476   1.404       .  A
C3475      C3480   1.445   1_655  S
C3476      C3477   1.398       .  A
C3476      C3492   1.447   1_655  S
C3477      C3478   1.415       .  A
C3478      C3481   1.450       .  S
C3479      C3482   1.408       .  A
C3479      C3486   1.424       .  A
C3480      N3497   1.156       .  T
C3481      N3499   1.158       .  T
C3483      C3489   1.449       .  S
C3484      C3485   1.403       .  A
C3485      C3486   1.416       .  A
C3485      C3488   1.448       .  S
C3486      C3490   1.444       .  S
C3487      N3494   1.153       .  T
C3488      N4019   1.157       .  T
C3489      N3493   1.156       .  T
C3490      N3496   1.155       .  T
C3491      N3500   1.156       .  T
C3492      N3498   1.156       .  T
N3495      C4012   1.157       .  T
C3501      C3502   1.408       .  A
C3501      C3506   1.406       .  A
C3501      C3519   1.451       .  S
C3502      C3507   1.500       .  S
C3502      C3503   1.431       .  A
C3503      C3504   1.407       .  A
C3503      C3508   1.450       .  S
C3504      C3505   1.398       .  A
C3504      C3520   1.449       .  S
C3505      C3506   1.429       .  A
C3506      C3509   1.454       .  S
C3507      C3510   1.411       .  A
C3507      C3514   1.407       .  A
C3508      N3525   1.157       .  T
C3509      N3527   1.158       .  T
C3510      C3511   1.412       .  A
C3510      C3515   1.448       .  S
C3511      C3512   1.417       .  A
C3511      C3517   1.449       .  S
C3512      C3513   1.408       .  A
C3513      C3514   1.392       .  A
C3513      C3516   1.446       .  S
C3514      C3518   1.444       .  S
C3515      N3522   1.158       .  T
C3516      N3523   1.155       .  T
C3517      N3521   1.157       .  T
C3518      N3524   1.157       .  T
C3519      N3528   1.157       .  T
C3520      N3526   1.157       .  T
C3529      C3530   1.406       .  A
C3529      C3534   1.408       .  A
C3529      C3547   1.451       .  S
C3530      C3535   1.484       .  S
C3530      C3531   1.414       .  A
C3531      C3532   1.396       .  A
C3531      C3536   1.454       .  S
C3532      C3533   1.414       .  A
C3532      C3548   1.449       .  S
C3533      C3534   1.423       .  A
C3534      C3537   1.450       .  S
C3535      C3538   1.418       .  A
C3535      C3542   1.397       .  A
C3536      N3553   1.158       .  T
C3537      N3555   1.158       .  T
C3539      C3540   1.417       .  A
C3539      C3545   1.446       .  S
C3541      C3542   1.388       .  A
C3541      C3544   1.436       .  S
C3542      C3546   1.450       .  S
C3543      N3550   1.158   1_655  T
C3544      N4075   1.155       .  T
C3545      N3549   1.155       .  T
C3546      N3552   1.155       .  T
C3547      N3556   1.157       .  T
C3548      N3554   1.155       .  T
N3551      C4068   1.155       .  T
C3557      C3558   1.412       .  A
C3557      C3562   1.386       .  A
C3557      C3575   1.455       .  S
C3559      C3564   1.443       .  S
C3560      C3561   1.409       .  A
C3561      C3562   1.406       .  A
C3562      C3565   1.450       .  S
C3563      C3566   1.410       .  A
C3563      C3570   1.406       .  A
C3564      N3581   1.156       .  T
C3565      N3583   1.156       .  T
C3566      C3567   1.416       .  A
C3566      C3571   1.446       .  S
C3567      C3568   1.415       .  A
C3567      C3573   1.450       .  S
C3568      C3569   1.423       .  A
C3569      C3570   1.388       .  A
C3569      C4096   1.449       .  S
C3571      N3578   1.157       .  T
C3572      C4093   1.451       .  S
C3572      N3579   1.156       .  T
C3573      N3577   1.157       .  T
C3574      N3580   1.157   1_554  T
C3575      N3584   1.158       .  T
C3585      C3586   1.411       .  A
C3585      C3590   1.413       .  A
C3585      C3603   1.452       .  S
C3586      C3591   1.492       .  S
C3586      C3587   1.404       .  A
C3587      C3588   1.397       .  A
C3587      C3592   1.450       .  S
C3588      C3589   1.429       .  A
C3588      C3604   1.453       .  S
C3589      C3590   1.420       .  A
C3590      C3593   1.444       .  S
C3591      C3594   1.401       .  A
C3592      N3609   1.155       .  T
C3593      N3611   1.156       .  T
C3594      C3599   1.451       .  S
C3595      C3596   1.423       .  A
C3595      C3601   1.446       .  S
C3596      C3597   1.406   1_655  A
C3597      C3598   1.408       .  A
C3597      C3600   1.450       .  S
C3599      N3606   1.156       .  T
C3600      N3607   1.155   1_455  T
C3601      N3605   1.158       .  T
C3602      N3608   1.158       .  T
C3604      N3610   1.156       .  T
C3613      C3614   1.415       .  A
C3613      C3618   1.400       .  A
C3613      C3631   1.446       .  S
C3614      C3619   1.480       .  S
C3614      C3615   1.406       .  A
C3615      C3616   1.401       .  A
C3615      C3620   1.446       .  S
C3616      C3617   1.411       .  A
C3616      C3632   1.450       .  S
C3617      C3618   1.405       .  A
C3618      C3621   1.447       .  S
C3619      C3622   1.413       .  A
C3619      C3626   1.410       .  A
C3620      N3637   1.156       .  T
C3621      N3639   1.156       .  T
C3622      C3623   1.405       .  A
C3622      C3627   1.448       .  S
C3623      C3624   1.406       .  A
C3624      C3625   1.399       .  A
C3625      C3626   1.400       .  A
C3625      C3628   1.444       .  S
C3626      C3630   1.446       .  S
C3627      N3634   1.157       .  T
C3628      N3635   1.155       .  T
C3629      N3633   1.157       .  T
C3630      N3636   1.156       .  T
C3631      N3640   1.154       .  T
C3632      N3638   1.157       .  T
C3641      C3642   1.402       .  A
C3641      C3646   1.387       .  A
C3641      C3659   1.452       .  S
C3642      C3647   1.476       .  S
C3642      C3643   1.413       .  A
C3643      C3644   1.408       .  A
C3643      C3648   1.447       .  S
C3644      C3645   1.402       .  A
C3644      C3660   1.444       .  S
C3645      C3646   1.420       .  A
C3646      C3649   1.448       .  S
C3647      C3650   1.416       .  A
C3647      C3654   1.410       .  A
C3648      N3665   1.156       .  T
C3649      N3667   1.156       .  T
C3650      C3651   1.404       .  A
C3650      C3655   1.444       .  S
C3651      C3652   1.400       .  A
C3651      C3657   1.447       .  S
C3652      C3653   1.405       .  A
C3653      C3654   1.395       .  A
C3653      C3656   1.447       .  S
C3654      C3658   1.452       .  S
C3655      N3662   1.155       .  T
C3656      N3663   1.158       .  T
C3657      N3661   1.157       .  T
C3658      N3664   1.157       .  T
C3659      N3668   1.157       .  T
C3660      N3666   1.156       .  T
C3669      N3670   1.395       .  A
C3669      N3674   1.351       .  A
C3669      C3788   1.519       .  S
N3670      C3671   1.397       .  A
C3671      N3672   1.347       .  A
C3671      C3758   1.507       .  S
N3672      C3673   1.338       .  A
C3673      N3674   1.349       .  A
C3673      C4176   1.473       .  S
C3675      N3676   1.349       .  A
C3675      N3680   1.399       .  A
C3675      C3755   1.532       .  S
N3676      C3677   1.352       .  A
C3677      N3678   1.339       .  A
C3677      C4148   1.472       .  S
C3679      C3855   1.511   1_455  S
C3681      N3682   1.391       .  A
C3681      N3686   1.348       .  A
C3681      C3850   1.518       .  S
N3682      C3683   1.394       .  A
C3683      N3684   1.366       .  A
C3683      C3807   1.528       .  S
N3684      C3685   1.353       .  A
C3685      N3686   1.338       .  A
C3685      C4120   1.492       .  S
C3687      N3688   1.363       .  A
C3687      N3692   1.354       .  A
C3687      C4113   1.505       .  S
N3688      C3689   1.366       .  A
C3689      N3690   1.352       .  A
C3689      C4141   1.470       .  S
N3690      C3691   1.333       .  A
C3691      N3692   1.349       .  A
C3691      C4169   1.470       .  S
O3693      C3709   1.279       .  A
O3693     Zn3699   2.002       .  S
C3694      C3728   1.546       .  S
C3694      O3710   1.284       .  A
C3694      O3707   1.291       .  A
O3695      C3708   1.283       .  A
O3695     Cd3702   2.188       .  S
O3696      C3714   1.299       .  A
O3696     Cd3705   2.176       .  S
O3697      C3711   1.298       .  A
O3697     Cd3701   2.174       .  S
O3698      C3709   1.278       .  A
O3698     Cd3701   2.195       .  S
Zn3699     O3710   2.062       .  S
Zn3699     O3712   2.034       .  S
Zn3699     O3704   1.878       .  S
O3700      C3711   1.275       .  A
O3700     Cd3705   2.092       .  S
Cd3701     O3703   2.112       .  S
Cd3701     O3704   2.078       .  S
Cd3702     O3706   2.191       .  S
Cd3702     O3715   2.183       .  S
Cd3702     O3704   2.052       .  S
O3703      C3713   1.281       .  A
O3704     Cd3705   2.038       .  S
Cd3705     O3707   2.249       .  S
O3706      C3713   1.302       .  A
C3708      C3775   1.513       .  S
C3708      O3712   1.282       .  A
C3709      C3822   1.520       .  S
C3711      C3773   1.484       .  S
C3713      C3726   1.521       .  S
C3714      C3818   1.529       .  S
C3714      O3715   1.290       .  A
C3716      N3721   1.393       .  A
C3716      C3835   1.514       .  S
N3717      C3718   1.345       .  A
C3718      N3719   1.354       .  A
C3718      C4085   1.462   1_545  S
C3720      N3721   1.396       .  A
C3720      C3760   1.514       .  S
C3722      N3723   1.347       .  A
C3722      N3727   1.394       .  A
C3722      C3741   1.538       .  S
N3723      C3724   1.352       .  A
C3724      N3725   1.344       .  A
C3724      C4057   1.486       .  S
N3725      C3726   1.353       .  A
C3726      N3727   1.400       .  A
C3728      N3729   1.351       .  A
C3728      N3733   1.404       .  A
N3729      C3730   1.346       .  A
C3730      N3731   1.334       .  A
C3730      C4036   1.471       .  S
N3731      C3732   1.348       .  A
C3732      N3733   1.410       .  A
C3732      C3854   1.517       .  S
C3734      N3735   1.369       .  A
C3734      N3739   1.347   1_556  A
C3734      C4029   1.502       .  S
N3735      C3736   1.370   1_556  A
C3736      C4064   1.497       .  S
N3737      C3738   1.351       .  A
C3738      C4092   1.474       .  S
O3740     Zn3746   2.056       .  S
C3741      O3757   1.288       .  A
C3741      O3754   1.285       .  A
O3742      C3755   1.291       .  A
O3742     Cd3749   2.203       .  S
O3743     Cd3752   2.115       .  S
O3744      C3758   1.295       .  A
O3744     Cd3748   2.151       .  S
O3745      C3756   1.287       .  A
O3745     Cd3748   2.204       .  S
Zn3746     O3757   2.123       .  S
Zn3746     O3759   2.132       .  S
Zn3746     O3751   1.910       .  S
O3747      C3758   1.274       .  A
Cd3748     O3750   2.106       .  S
Cd3749     O3751   2.045       .  S
O3750      C3760   1.277       .  A
O3751     Cd3752   2.059       .  S
Cd3752     O3754   2.198       .  S
C3755      O3759   1.290       .  A
C3756      C3763   1.522       .  S
C3761      C3777   1.517   1_545  S
C3761      O3762   1.284   1_545  A
C3763      N3764   1.390       .  A
N3764      C3765   1.403       .  A
C3767      N3768   1.333       .  A
C3769      N3770   1.362       .  A
C3769      N3774   1.385       .  A
C3769      C3803   1.526       .  S
N3770      C3771   1.366       .  A
C3771      N3772   1.340       .  A
C3771      C3973   1.496       .  S
N3772      C3773   1.347       .  A
C3773      N3774   1.387       .  A
C3775      N3776   1.399       .  A
C3775      N3780   1.353       .  A
N3776      C3777   1.399       .  A
C3777      N3778   1.347       .  A
N3778      C3779   1.336       .  A
C3779      N3780   1.339       .  A
C3779      C3952   1.466       .  S
C3781      N3782   1.356       .  A
C3781      N3786   1.354       .  A
C3781      C3980   1.499       .  S
N3782      C3783   1.359       .  A
C3783      N3784   1.352       .  A
C3783      C3945   1.472       .  S
N3784      C3785   1.349       .  A
C3785      N3786   1.357       .  A
C3785      C4001   1.489       .  S
O3787      C3803   1.287       .  A
O3787     Zn3793   2.157       .  S
C3788      O3804   1.291       .  A
C3788      O3801   1.289       .  A
O3789      C3802   1.291       .  A
O3789     Cd3796   2.232       .  S
O3790      C3808   1.299       .  A
O3790     Cd3799   2.191       .  S
O3791     Cd3795   2.182       .  S
O3792      C3803   1.283       .  A
O3792     Cd3795   2.136       .  S
Zn3793     O3804   2.095       .  S
Zn3793     O3806   2.078       .  S
Zn3793     O3798   1.952       .  S
O3794      C3805   1.284       .  A
Cd3795     O3797   2.118       .  S
Cd3795     O3798   2.047       .  S
Cd3796     O3800   2.210       .  S
Cd3796     O3809   2.134       .  S
Cd3796     O3798   2.061       .  S
O3797      C3807   1.282       .  A
O3798     Cd3799   2.062       .  S
Cd3799     O3801   2.187       .  S
O3800      C3807   1.299       .  A
C3802      C3810   1.543       .  S
C3802      O3806   1.286       .  A
C3805      C3826   1.529   1_554  S
C3808      O3809   1.282       .  A
C3810      N3811   1.396       .  A
C3810      N3815   1.355       .  A
N3811      C3812   1.403       .  A
C3812      N3813   1.368       .  A
C3812      C3852   1.540       .  S
N3813      C3814   1.361       .  A
C3814      N3815   1.347       .  A
C3814      C3924   1.494       .  S
C3816      N3817   1.404       .  A
C3816      N3821   1.363       .  A
N3817      C3818   1.402       .  A
C3818      N3819   1.345       .  A
N3819      C3820   1.341       .  A
C3820      N3821   1.353       .  A
C3820      C3889   1.493       .  S
C3822      N3823   1.335       .  A
C3822      N3827   1.389       .  A
N3823      C3824   1.328       .  A
C3824      N3825   1.360       .  A
C3824      C3861   1.492       .  S
N3825      C3826   1.376       .  A
C3826      N3827   1.403       .  A
C3828      N3829   1.348       .  A
C3828      N3833   1.360   1_565  A
C3828      C3868   1.492       .  S
N3829      C3830   1.343       .  A
C3830      C3896   1.488       .  S
N3831      C3832   1.364       .  A
C3832      C3917   1.502       .  S
O3834      C3850   1.285       .  A
O3834     Zn3840   2.073   1_655  S
O3836      C3849   1.293       .  A
O3836     Cd3843   2.231   1_455  S
O3837      C3855   1.295       .  A
O3837     Cd3846   2.169       .  S
O3838      C3852   1.304       .  A
O3839      C3850   1.286       .  A
O3839     Cd3842   2.189       .  S
Zn3840     O3851   2.138       .  S
Zn3840     O3853   2.093       .  S
Zn3840     O3845   1.972   1_455  S
O3841      C3852   1.288       .  A
O3841     Cd3846   2.163       .  S
Cd3842     O3844   2.150       .  S
Cd3842     O3845   2.086       .  S
Cd3843     O3847   2.183       .  S
Cd3843     O3845   2.061       .  S
O3844      C3854   1.281       .  A
Cd3846     O3848   2.154   1_655  S
O3847      C3854   1.300       .  A
C3849      O3853   1.288       .  A
C3855      O3856   1.281       .  A
C3857      C3858   1.405   1_554  A
C3857      C3862   1.410       .  A
C3858      C3863   1.486       .  S
C3858      C3859   1.391       .  A
C3859      C3860   1.400       .  A
C3859      C3864   1.442       .  S
C3860      C3861   1.431       .  A
C3860      C3876   1.452       .  S
C3861      C3862   1.410   1_556  A
C3862      C3865   1.442       .  S
C3863      C3870   1.409       .  A
C3864      N3881   1.153       .  T
C3865      N3883   1.154       .  T
C3866      C3867   1.413       .  A
C3866      C3871   1.449       .  S
C3867      C3868   1.415       .  A
C3867      C3873   1.444   1_565  S
C3868      C3869   1.415       .  A
C3869      C3872   1.453       .  S
C3870      C3874   1.452       .  S
C3871      N3878   1.157       .  T
C3872      N3879   1.155       .  T
C3873      N3877   1.156       .  T
C3874      N3880   1.157       .  T
C3875      N3884   1.152       .  T
C3876      N3882   1.156       .  T
C3885      C3886   1.400       .  A
C3885      C3890   1.406       .  A
C3885      C3903   1.443       .  S
C3886      C3891   1.515       .  S
C3886      C3887   1.400       .  A
C3887      C3888   1.416       .  A
C3887      C3892   1.447       .  S
C3888      C3889   1.437       .  A
C3888      C3904   1.451       .  S
C3889      C3890   1.425       .  A
C3890      C3893   1.448       .  S
C3891      C3894   1.415       .  A
C3891      C3898   1.410       .  A
C3892      N3909   1.157       .  T
C3893      N3911   1.157       .  T
C3894      C3895   1.401       .  A
C3894      C3899   1.455       .  S
C3895      C3896   1.417       .  A
C3896      C3897   1.421       .  A
C3897      C3898   1.409       .  A
C3897      C3900   1.448       .  S
C3898      C3902   1.449       .  S
C3899      N3906   1.158       .  T
C3900      N3907   1.156       .  T
C3901      N3905   1.155       .  T
C3902      N3908   1.157       .  T
C3903      N3912   1.157       .  T
C3904      N3910   1.158       .  T
C3913      C3914   1.408       .  A
C3913      C3918   1.405       .  A
C3913      C3931   1.449       .  S
C3914      C3919   1.493       .  S
C3914      C3915   1.410       .  A
C3915      C3916   1.414       .  A
C3915      C3920   1.448       .  S
C3916      C3917   1.417       .  A
C3916      C3932   1.452       .  S
C3917      C3918   1.410       .  A
C3918      C3921   1.444       .  S
C3919      C3922   1.404       .  A
C3919      C3926   1.411       .  A
C3920      N3937   1.157       .  T
C3922      C3923   1.414       .  A
C3922      C3927   1.450       .  S
C3923      C3924   1.421       .  A
C3923      C3929   1.442       .  S
C3924      C3925   1.409       .  A
C3925      C3926   1.408       .  A
C3925      C3928   1.444       .  S
C3926      C3930   1.451       .  S
C3927      N3934   1.157       .  T
C3928      N3935   1.154       .  T
C3929      N3933   1.155       .  T
C3930      N3936   1.156       .  T
C3931      N3940   1.156       .  T
C3932      N3938   1.157       .  T
C3941      C3942   1.418       .  A
C3941      C3946   1.402       .  A
C3941      C3959   1.446   1_545  S
C3942      C3947   1.489       .  S
C3943      C3944   1.398       .  A
C3943      C3948   1.452       .  S
C3944      C3945   1.416       .  A
C3944      C3960   1.449       .  S
C3946      C3949   1.446   1_545  S
C3947      C3950   1.418       .  A
C3947      C3954   1.411       .  A
C3948      N3965   1.155       .  T
C3949      N3967   1.155       .  T
C3950      C3951   1.404       .  A
C3950      C3955   1.453       .  S
C3951      C3952   1.412   1_545  A
C3951      C3957   1.453       .  S
C3952      C3953   1.411       .  A
C3953      C3954   1.399   1_565  A
C3953      C3956   1.451       .  S
C3954      C3958   1.451       .  S
C3955      N3962   1.157       .  T
C3956      N3963   1.157       .  T
C3957      N3961   1.158       .  T
C3958      N3964   1.156       .  T
C3959      N3968   1.155       .  T
C3960      N3966   1.155       .  T
C3969      C3970   1.408       .  A
C3969      C3974   1.412       .  A
C3969      C3987   1.448       .  S
C3970      C3975   1.487       .  S
C3970      C3971   1.419       .  A
C3971      C3972   1.403       .  A
C3971      C3976   1.445       .  S
C3972      C3973   1.393       .  A
C3972      C3988   1.439       .  S
C3973      C3974   1.417       .  A
C3974      C3977   1.446       .  S
C3975      C3978   1.404       .  A
C3975      C3982   1.398       .  A
C3976      N3993   1.157       .  T
C3977      N3995   1.157       .  T
C3978      C3979   1.400       .  A
C3978      C3983   1.447       .  S
C3979      C3980   1.409       .  A
C3979      C3985   1.441       .  S
C3980      C3981   1.414       .  A
C3981      C3982   1.408       .  A
C3981      C3984   1.443       .  S
C3982      C3986   1.436       .  S
C3983      N3990   1.155       .  T
C3984      N3991   1.155   1_655  T
C3985      N3989   1.154       .  T
C3986      N3992   1.153       .  T
C3987      N3996   1.157       .  T
C3988      N3994   1.154       .  T
C3997      C3998   1.415       .  A
C3997      C4002   1.409       .  A
C3997      C4015   1.450       .  S
C3998      C4003   1.507       .  S
C3998      C3999   1.423       .  A
C3999      C4000   1.407       .  A
C3999      C4004   1.447   1_655  S
C4000      C4001   1.403       .  A
C4000      C4016   1.447   1_655  S
C4001      C4002   1.416       .  A
C4002      C4005   1.450       .  S
C4003      C4006   1.405       .  A
C4003      C4010   1.424       .  A
C4004      N4021   1.156       .  T
C4005      N4023   1.158       .  T
C4007      C4013   1.452       .  S
C4008      C4009   1.405       .  A
C4009      C4010   1.416       .  A
C4009      C4012   1.449       .  S
C4010      C4014   1.445       .  S
C4011      N4018   1.153       .  T
C4013      N4017   1.156       .  T
C4014      N4020   1.155       .  T
C4015      N4024   1.157       .  T
C4016      N4022   1.156       .  T
C4025      C4026   1.400       .  A
C4025      C4030   1.401       .  A
C4025      C4043   1.448       .  S
C4026      C4031   1.494       .  S
C4026      C4027   1.426       .  A
C4027      C4028   1.411       .  A
C4027      C4032   1.451       .  S
C4028      C4029   1.405       .  A
C4028      C4044   1.449       .  S
C4029      C4030   1.430       .  A
C4030      C4033   1.451   1_556  S
C4031      C4034   1.405       .  A
C4031      C4038   1.407       .  A
C4032      N4049   1.157       .  T
C4033      N4051   1.157       .  T
C4034      C4035   1.408       .  A
C4034      C4039   1.448       .  S
C4035      C4036   1.418       .  A
C4035      C4041   1.449       .  S
C4036      C4037   1.409       .  A
C4037      C4038   1.392       .  A
C4037      C4040   1.445       .  S
C4038      C4042   1.444       .  S
C4039      N4046   1.157       .  T
C4040      N4047   1.154       .  T
C4041      N4045   1.157       .  T
C4042      N4048   1.157       .  T
C4043      N4052   1.156       .  T
C4044      N4050   1.157       .  T
C4053      C4054   1.407       .  A
C4053      C4058   1.410       .  A
C4053      C4071   1.451       .  S
C4054      C4059   1.483       .  S
C4054      C4055   1.414       .  A
C4055      C4056   1.395       .  A
C4055      C4060   1.453   1_556  S
C4056      C4057   1.410       .  A
C4056      C4072   1.448       .  S
C4057      C4058   1.420       .  A
C4058      C4061   1.449       .  S
C4059      C4062   1.415       .  A
C4059      C4066   1.397   1_556  A
C4060      N4077   1.157       .  T
C4061      N4079   1.157       .  T
C4063      C4064   1.414   1_556  A
C4063      C4069   1.444       .  S
C4065      C4066   1.390       .  A
C4065      C4068   1.437       .  S
C4066      C4070   1.452       .  S
C4067      N4074   1.157       .  T
C4069      N4073   1.155       .  T
C4070      N4076   1.157       .  T
C4071      N4080   1.157       .  T
C4072      N4078   1.154   1_556  T
C4081      C4082   1.413       .  A
C4081      C4086   1.387       .  A
C4081      C4099   1.457       .  S
C4083      C4088   1.445       .  S
C4084      C4085   1.410   1_545  A
C4085      C4086   1.411       .  A
C4086      C4089   1.452       .  S
C4087      C4090   1.409       .  A
C4087      C4094   1.405       .  A
C4088      N4105   1.156       .  T
C4089      N4107   1.156       .  T
C4090      C4091   1.414       .  A
C4090      C4095   1.445       .  S
C4091      C4092   1.413       .  A
C4091      C4097   1.449       .  S
C4092      C4093   1.424       .  A
C4093      C4094   1.389       .  A
C4095      N4102   1.156       .  T
C4096      N4103   1.157   1_554  T
C4097      N4101   1.157       .  T
C4098      N4104   1.157       .  T
C4099      N4108   1.157       .  T
C4109      C4110   1.406       .  A
C4109      C4114   1.410       .  A
C4109      C4127   1.452       .  S
C4110      C4115   1.490       .  S
C4110      C4111   1.405       .  A
C4111      C4112   1.398       .  A
C4111      C4116   1.449       .  S
C4112      C4113   1.428       .  A
C4112      C4128   1.453       .  S
C4113      C4114   1.420       .  A
C4114      C4117   1.439       .  S
C4115      C4118   1.401       .  A
C4116      N4133   1.154       .  T
C4117      N4135   1.154       .  T
C4118      C4123   1.452       .  S
C4119      C4120   1.423       .  A
C4119      C4125   1.446       .  S
C4120      C4121   1.409   1_655  A
C4121      C4122   1.409       .  A
C4121      C4124   1.449       .  S
C4123      N4130   1.157       .  T
C4124      N4131   1.156       .  T
C4125      N4129   1.157       .  T
C4126      N4132   1.157       .  T
C4128      N4134   1.157       .  T
C4137      C4138   1.414       .  A
C4137      C4142   1.402       .  A
C4137      C4155   1.449       .  S
C4138      C4143   1.480       .  S
C4138      C4139   1.405       .  A
C4139      C4140   1.400       .  A
C4139      C4144   1.445       .  S
C4140      C4141   1.408       .  A
C4140      C4156   1.449       .  S
C4141      C4142   1.407       .  A
C4142      C4145   1.448       .  S
C4143      C4146   1.410       .  A
C4143      C4150   1.409       .  A
C4144      N4161   1.156       .  T
C4145      N4163   1.157       .  T
C4146      C4147   1.405       .  A
C4146      C4151   1.449       .  S
C4147      C4148   1.407       .  A
C4148      C4149   1.400       .  A
C4149      C4150   1.401       .  A
C4149      C4152   1.443       .  S
C4150      C4154   1.445       .  S
C4151      N4158   1.157       .  T
C4152      N4159   1.155       .  T
C4153      N4157   1.158       .  T
C4154      N4160   1.157       .  T
C4155      N4164   1.155       .  T
C4156      N4162   1.157       .  T
C4165      C4166   1.405       .  A
C4165      C4170   1.387       .  A
C4165      C4183   1.452       .  S
C4166      C4171   1.481       .  S
C4166      C4167   1.416       .  A
C4167      C4168   1.409       .  A
C4167      C4172   1.447       .  S
C4168      C4169   1.400       .  A
C4168      C4184   1.442       .  S
C4169      C4170   1.415       .  A
C4170      C4173   1.448       .  S
C4171      C4174   1.415       .  A
C4171      C4178   1.411       .  A
C4172      N4189   1.157       .  T
C4173      N4191   1.156       .  T
C4174      C4175   1.405       .  A
C4174      C4179   1.443       .  S
C4175      C4176   1.402       .  A
C4175      C4181   1.447       .  S
C4176      C4177   1.406       .  A
C4177      C4178   1.396       .  A
C4177      C4180   1.447       .  S
C4178      C4182   1.451       .  S
C4179      N4186   1.154       .  T
C4180      N4187   1.156       .  T
C4181      N4185   1.156       .  T
C4182      N4188   1.157       .  T
C4183      N4192   1.156       .  T
C4184      N4190   1.154       .  T
