geometry optimzed in LAMMPS
_audit_creation_date              2020-11-30 
_audit_creation_method            'lammps2cif' 
_symmetry_space_group_name_H-M    'P1' 
_symmetry_Int_Tables_number       1 
_symmetry_cell_setting            triclinic 
loop_ 
_symmetry_equiv_pos_as_xyz 
  x,y,z 
_cell_length_a                    52.82991553 
_cell_length_b                    52.510122443331234 
_cell_length_c                    52.98985786885568 
_cell_angle_alpha                 89.77391889289703 
_cell_angle_beta                  90.25901563071005 
_cell_angle_gamma                 90.02053740703444 
loop_ 
_atom_site_label 
_atom_site_type_symbol 
_atom_site_fract_x 
_atom_site_fract_y 
_atom_site_fract_z 
_atom_site_charge 
C1          C  0.57140380  0.27906699  0.08219889     0.03200
C2          C  0.55558692  0.28506454  0.10270573    -0.13000
C3          C  0.52929897  0.28121497  0.10131659     0.00700
C4          C  0.51889950  0.27070978  0.07930236    -0.11500
C5          C  0.53414076  0.26437283  0.05863067     0.03200
C6          C  0.56041846  0.26878717  0.06011368    -0.10900
H7          H  0.56372186  0.29290724  0.11978469     0.08800
H8          H  0.49866181  0.26755292  0.07817471     0.06300
H9          H  0.57223643  0.26424560  0.04411494     0.06200
C10         C  0.30120108  0.12146395  0.51495366     0.03200
C11         C  0.29026812  0.09995552  0.50339981    -0.13000
C12         C  0.28653212  0.09929422  0.47712683     0.00700
C13         C  0.29402922  0.12020864  0.46243452    -0.11500
C14         C  0.30517378  0.14170132  0.47348747     0.03200
C15         C  0.30851918  0.14227292  0.49978592    -0.10900
H16         H  0.28472753  0.08373444  0.51478391     0.08800
H17         H  0.29121633  0.11969288  0.44217950     0.06300
H18         H  0.31691322  0.15893795  0.50844779     0.06200
C19         C  0.13868262  0.55439455  0.24438502     0.03200
C20         C  0.11672533  0.54267929  0.23459362    -0.13000
C21         C  0.11594048  0.51619791  0.23071531     0.00700
C22         C  0.13708110  0.50139737  0.23726741    -0.11500
C23         C  0.15893508  0.51255361  0.24749519     0.03200
C24         C  0.15966779  0.53907725  0.25080502    -0.10900
H25         H  0.10055864  0.55420356  0.22922015     0.08800
H26         H  0.13649403  0.48099533  0.23436538     0.06300
H27         H  0.17639029  0.54772275  0.25902138     0.06200
C28         C  0.33167665  0.35043724  0.28757416     0.03200
C29         C  0.35114692  0.34692804  0.26990110    -0.13000
C30         C  0.36806647  0.32633166  0.27209661     0.00700
C31         C  0.36527087  0.30917234  0.29233769    -0.11500
C32         C  0.34609537  0.31249967  0.31030912     0.03200
C33         C  0.32949996  0.33324052  0.30783821    -0.10900
H34         H  0.35297649  0.36012177  0.25426581     0.08800
H35         H  0.37797272  0.29307247  0.29407064     0.06300
H36         H  0.31460785  0.33580433  0.32158490     0.06200
O37         O  0.68621498  0.61982819  0.58875036    -0.78400
C38         C  0.62649424  0.63778105  0.64505140     0.82600
O39         O  0.67476663  0.70525935  0.57552305    -0.79500
O40         O  0.66149476  0.71622356  0.66048407    -0.81000
O41         O  0.72092701  0.64263510  0.67337134    -0.80800
O42         O  0.72033214  0.61607847  0.61326477    -0.79400
Zn43       Zn  0.66592431  0.64836080  0.60426043     1.55700
O44         O  0.68870991  0.66551866  0.68819888    -0.80800
Cd45       Cd  0.71843135  0.64938980  0.63449875     1.59700
Cd46       Cd  0.69640609  0.70135114  0.60831725     1.59600
O47         O  0.74996106  0.66993071  0.62347065    -0.80800
O48         O  0.68710002  0.66893462  0.62590299    -1.91300
Cd49       Cd  0.66786601  0.67706774  0.65719701     1.59900
O50         O  0.73543003  0.70311397  0.60135742    -0.80800
O51         O  0.63464949  0.65567039  0.65918957    -0.79400
C52         C  0.65668578  0.69170358  0.56675225     0.83100
C53         C  0.70677865  0.60853448  0.59471491     0.82700
O54         O  0.63717371  0.63268724  0.62412501    -0.78400
C55         C  0.70809192  0.65146347  0.69178191     0.83600
O56         O  0.65114467  0.67012589  0.57640632    -0.78500
C57         C  0.75378475  0.68960164  0.60978899     0.83700
C58         C  0.67157369  0.73523933  0.64920592     0.84000
O59         O  0.68635218  0.73227103  0.63043946    -0.80900
C60         C  0.25890216  0.90275585  0.01684128     0.03200
C61         C  0.26938966  0.92468406  0.00558380    -0.13000
C62         C  0.27503276  0.92519413  0.97970331     0.00700
C63         C  0.26981561  0.90363580  0.96501565    -0.11500
C64         C  0.25927472  0.88160683  0.97572625     0.03200
C65         C  0.25390675  0.88130786  0.00168654    -0.10900
H66         H  0.27311008  0.94140968  0.01691324     0.08800
H67         H  0.27321406  0.90434394  0.94487534     0.06300
H68         H  0.24635974  0.86414063  0.01018388     0.06200
C69         C  0.41625653  0.47011484  0.73811549     0.03200
C70         C  0.43838019  0.48161558  0.72847658    -0.13000
C71         C  0.43977340  0.50821293  0.72506411     0.00700
C72         C  0.41856335  0.52313630  0.73094946    -0.11500
C73         C  0.39640227  0.51219735  0.74065510     0.03200
C74         C  0.39536488  0.48565930  0.74405587    -0.10900
H75         H  0.45478138  0.46998589  0.72444050     0.08800
H76         H  0.41913646  0.54347134  0.72751417     0.06300
H77         H  0.37827073  0.47710780  0.75146198     0.06200
C78         C  0.98752076  0.73605218  0.57918516     0.03200
C79         C  0.00250357  0.73113143  0.60072350    -0.13000
C80         C  0.02881945  0.73501938  0.60034665     0.00700
C81         C  0.04011627  0.74397529  0.57810244    -0.11500
C82         C  0.02570207  0.74884935  0.55630091     0.03200
C83         C  0.99932225  0.74507391  0.55705515    -0.10900
H84         H  0.99365951  0.72425857  0.61783942     0.08800
H85         H  0.06027075  0.74778568  0.57791751     0.06300
H86         H  0.98809903  0.74844123  0.54020886     0.06200
C87         C  0.21269552  0.71247378  0.81207129     0.03200
C88         C  0.22943015  0.69194254  0.80854440    -0.13000
C89         C  0.22598883  0.67479110  0.78846039     0.00700
C90         C  0.20539958  0.67835394  0.77193982    -0.11500
C91         C  0.18850919  0.69874562  0.77509284     0.03200
C92         C  0.19223400  0.71559707  0.79528720    -0.10900
H93         H  0.24533084  0.68948470  0.82128246     0.08800
H94         H  0.20271500  0.66542618  0.75628234     0.06300
H95         H  0.17932770  0.73141120  0.79775477     0.06200
O96         O  0.41974559  0.13260287  0.81386294    -0.78400
C97         C  0.40088391  0.18982422  0.87293824     0.82600
O98         O  0.33644239  0.11632400  0.82545145    -0.79500
O99         O  0.32219260  0.20310247  0.83802761    -0.81000
O100        O  0.39556148  0.21708683  0.77873902    -0.80800
O101        O  0.42167758  0.15601274  0.77884048    -0.79400
Zn102      Zn  0.39140475  0.14811264  0.83407878     1.55700
O103        O  0.37193917  0.23247783  0.80996778    -0.80800
Cd104      Cd  0.38885680  0.17790251  0.78151653     1.59700
Cd105      Cd  0.33862683  0.14986522  0.80440006     1.59600
O106        O  0.36743358  0.16741133  0.75054526    -0.80800
O107        O  0.37010397  0.16920789  0.81301518    -1.91300
Cd108      Cd  0.36131900  0.20112332  0.83149345     1.59900
O109        O  0.33597290  0.14348152  0.76557094    -0.80800
O110        O  0.38281199  0.20379051  0.86467950    -0.79400
C111        C  0.35031580  0.10853948  0.84370421     0.83100
C112        C  0.42995841  0.13786233  0.79272005     0.82700
O113        O  0.40637965  0.16875066  0.86241541    -0.78400
C114        C  0.38614296  0.23586449  0.79079546     0.83600
O115        O  0.37109087  0.11957754  0.84922591    -0.78500
C116        C  0.34824386  0.15307039  0.74708511     0.83700
C117        C  0.30367868  0.19000666  0.82934494     0.84000
O118        O  0.30727349  0.17053019  0.81548455    -0.80900
C119        C  0.07167222  0.24390000  0.86300388     0.03200
C120        C  0.06047477  0.25460784  0.88466585    -0.13000
C121        C  0.03449569  0.26069590  0.88495912     0.00700
C122        C  0.01972459  0.25568553  0.86343973    -0.11500
C123        C  0.03034923  0.24488459  0.84176389     0.03200
C124        C  0.05634214  0.23924446  0.84165984    -0.10900
H125        H  0.07188694  0.25810661  0.90133039     0.08800
H126        H  0.99954748  0.25934147  0.86392710     0.06300
H127        H  0.06471450  0.23162909  0.82467612     0.06200
C128        C  0.79829398  0.39791660  0.42833859     0.03200
C129        C  0.80343470  0.37625308  0.44324959    -0.13000
C130        C  0.79877382  0.37625644  0.46930615     0.00700
C131        C  0.78888616  0.39825251  0.48049248    -0.11500
C132        C  0.78349314  0.42012363  0.46609670     0.03200
C133        C  0.78831638  0.41981931  0.43996994    -0.10900
H134        H  0.81054621  0.35910128  0.43448142     0.08800
H135        H  0.78609057  0.39858577  0.50072952     0.06300
H136        H  0.78432432  0.43661371  0.42870751     0.06200
C137        C  0.63729756  0.96811012  0.70044752     0.03200
C138        C  0.65840771  0.98341631  0.69470416    -0.13000
C139        C  0.65725615  0.01007257  0.69672951     0.00700
C140        C  0.63452932  0.02140545  0.70456095    -0.11500
C141        C  0.61317703  0.00655384  0.71038079     0.03200
C142        C  0.61473573  0.97989354  0.70830626    -0.10900
H143        H  0.67562749  0.97457898  0.68800777     0.08800
H144        H  0.63365977  0.04186118  0.70688591     0.06300
H145        H  0.59838940  0.96832502  0.71286723     0.06200
C146        C  0.84749521  0.20534733  0.63129534     0.03200
C147        C  0.83113384  0.18456861  0.63481908    -0.13000
C148        C  0.83384987  0.16814758  0.65566141     0.00700
C149        C  0.85374808  0.17243865  0.67288360    -0.11500
C150        C  0.87052193  0.19304962  0.66963902     0.03200
C151        C  0.86728503  0.20928513  0.64865599    -0.10900
H152        H  0.81621669  0.18112937  0.62117272     0.08800
H153        H  0.85549659  0.16039842  0.68944246     0.06300
H154        H  0.87991006  0.22533123  0.64607686     0.06200
O155        O  0.91973190  0.39099025  0.12945831    -0.78400
C156        C  0.90065111  0.33478656  0.06931509     0.82600
O157        O  0.83556180  0.40568764  0.11769255    -0.79500
O158        O  0.82269536  0.31892391  0.10566006    -0.81000
O159        O  0.89676308  0.30554236  0.16334045    -0.80800
O160        O  0.92285175  0.36661555  0.16378903    -0.79400
Zn161      Zn  0.89130092  0.37543998  0.10914918     1.55700
O162        O  0.87375706  0.29086592  0.13111427    -0.80800
Cd163      Cd  0.88987774  0.34479673  0.16137048     1.59700
Cd164      Cd  0.83895293  0.37241261  0.13915684     1.59600
O165        O  0.86890147  0.35493102  0.19275329    -0.80800
O166        O  0.87060013  0.35378987  0.13004896    -1.91300
Cd167      Cd  0.86193375  0.32232824  0.11071118     1.59900
O168        O  0.83702576  0.37867990  0.17807348    -0.80800
O169        O  0.88243380  0.32076964  0.07700947    -0.79400
C170        C  0.84905435  0.41382147  0.09939763     0.83100
C171        C  0.93066010  0.38515641  0.15019633     0.82700
O172        O  0.90640429  0.35542412  0.08056921    -0.78400
C173        C  0.88774922  0.28706120  0.15045019     0.83600
O174        O  0.87017332  0.40349711  0.09402099    -0.78500
C175        C  0.84960550  0.36904377  0.19644849     0.83700
C176        C  0.80420262  0.33112859  0.11537161     0.84000
O177        O  0.80779784  0.35068720  0.12915447    -0.80900
C178        C  0.91407289  0.05228936  0.20195243     0.03200
C179        C  0.89331336  0.03698069  0.19494690    -0.13000
C180        C  0.89435109  0.01034766  0.19730194     0.00700
C181        C  0.91646125  0.99902664  0.20689409    -0.11500
C182        C  0.93767036  0.01372247  0.21356287     0.03200
C183        C  0.93622441  0.04041744  0.21121693    -0.10900
H184        H  0.87655847  0.04574231  0.18689287     0.08800
H185        H  0.91699081  0.97857756  0.20958841     0.06300
H186        H  0.95240191  0.05193902  0.21645589     0.06200
C187        C  0.48690322  0.78406059  0.35878312     0.03200
C188        C  0.49873393  0.77685104  0.38161450    -0.13000
C189        C  0.52518045  0.77394273  0.38299085     0.00700
C190        C  0.53970058  0.77810463  0.36125152    -0.11500
C191        C  0.52831298  0.78511946  0.33828990     0.03200
C192        C  0.50190347  0.78816001  0.33723460    -0.10900
H193        H  0.48740334  0.77356816  0.39829326     0.08800
H194        H  0.56006823  0.77583611  0.36222169     0.06300
H195        H  0.49301082  0.79375691  0.31960465     0.06200
C196        C  0.75617959  0.61785169  0.92394431     0.03200
C197        C  0.75141230  0.63953791  0.93873902    -0.13000
C198        C  0.75361532  0.63857434  0.96515829     0.00700
C199        C  0.76063985  0.61552868  0.97672315    -0.11500
C200        C  0.76551274  0.59361454  0.96242644     0.03200
C201        C  0.76329944  0.59495198  0.93598117    -0.10900
H202        H  0.74586534  0.65719847  0.92966013     0.08800
H203        H  0.76233352  0.61462897  0.99706958     0.06300
H204        H  0.76705378  0.57817044  0.92477753     0.06200
C205        C  0.71112663  0.80966707  0.12681877     0.03200
C206        C  0.69140550  0.80592674  0.14422086    -0.13000
C207        C  0.68792063  0.82278071  0.16447873     0.00700
C208        C  0.70459030  0.84343624  0.16736776    -0.11500
C209        C  0.72452403  0.84742821  0.15033765     0.03200
C210        C  0.72747474  0.83056049  0.13003599    -0.10900
H211        H  0.67877605  0.78983152  0.14208197     0.08800
H212        H  0.70252249  0.85595516  0.18342569     0.06300
H213        H  0.74231847  0.83401006  0.11640031     0.06200
O214        O  0.14979950  0.85499524  0.36285393    -0.78400
C215        C  0.20625196  0.91537385  0.34506267     0.82600
O216        O  0.13423305  0.86737562  0.27988978    -0.79500
O217        O  0.21923381  0.88226769  0.26653860    -0.81000
O218        O  0.23523506  0.82178138  0.33907179    -0.80800
O219        O  0.17490034  0.82110447  0.36625994    -0.79400
Zn220      Zn  0.16511222  0.87606484  0.33493100     1.55700
O221        O  0.24936597  0.85389806  0.31529816    -0.80800
Cd222      Cd  0.19594563  0.82369751  0.33311729     1.59700
Cd223      Cd  0.16761713  0.84627232  0.28270948     1.59600
O224        O  0.18471856  0.79202277  0.31268558    -0.80800
O225        O  0.18650283  0.85523427  0.31410433    -1.91300
Cd226      Cd  0.21763845  0.87476508  0.30524454     1.59900
O227        O  0.16152720  0.80701809  0.28059999    -0.80800
O228        O  0.21993568  0.90769846  0.32680757    -0.79400
C229        C  0.12612025  0.88571485  0.29340382     0.83100
C230        C  0.15602707  0.83422563  0.37377420     0.82700
O231        O  0.18543589  0.90442586  0.35055647    -0.78400
C232        C  0.25344324  0.83458054  0.32943098     0.83600
O233        O  0.13679843  0.89146062  0.31424843    -0.78500
C234        C  0.17053569  0.78842527  0.29345258     0.83700
C235        C  0.20693074  0.87256890  0.24810012     0.84000
O236        O  0.18834823  0.85747000  0.25164408    -0.80900
C237        C  0.74833961  0.66138012  0.98092341    -0.03300
C238        C  0.72786350  0.67764204  0.97529019    -0.09000
C239        C  0.72214155  0.69815805  0.99110872    -0.16700
C240        C  0.73680102  0.70270074  0.01272060     0.25400
C241        C  0.75746834  0.68693940  0.01817356    -0.18400
C242        C  0.76325543  0.66651798  0.00239779    -0.07300
C243        C  0.73047060  0.72301805  0.02980785    -0.13700
C244        C  0.72616631  0.73913613  0.04540436    -0.13500
C245        C  0.72223841  0.75742984  0.06524297     0.25300
C246        C  0.74306719  0.76778408  0.07797757    -0.18900
C247        C  0.73945886  0.78474345  0.09791922    -0.07300
C248        C  0.71488182  0.79170241  0.10544133    -0.03400
C249        C  0.69403906  0.78129217  0.09240375    -0.08700
C250        C  0.69770729  0.76425764  0.07247729    -0.16400
H251        H  0.71584706  0.67409117  0.95908352     0.11800
H252        H  0.70606470  0.71021394  0.98669790     0.11100
H253        H  0.76901282  0.69030106  0.03478052     0.11000
H254        H  0.77942078  0.65470557  0.00705765     0.11500
H255        H  0.76215986  0.76250861  0.07267828     0.11600
H256        H  0.75591374  0.79203332  0.10774373     0.11600
H257        H  0.67488369  0.78648422  0.09744671     0.11700
H258        H  0.68143591  0.75634620  0.06280748     0.10500
C259        C  0.66717329  0.81865625  0.18292886    -0.03300
C260        C  0.66204360  0.79415464  0.19245910    -0.09000
C261        C  0.64292156  0.79044311  0.21029868    -0.16700
C262        C  0.62858259  0.81111842  0.21877538     0.25400
C263        C  0.63342167  0.83553530  0.20925272    -0.18400
C264        C  0.65259313  0.83930238  0.19148168    -0.07300
C265        C  0.60933849  0.80731496  0.23765007    -0.13700
C266        C  0.59390649  0.80368300  0.25402141    -0.13500
C267        C  0.57658097  0.79858660  0.27439041     0.25300
C268        C  0.55651820  0.81524447  0.27939576    -0.18900
C269        C  0.54040089  0.81062151  0.29984358    -0.07300
C270        C  0.54427008  0.78933799  0.31561310    -0.03400
C271        C  0.56421456  0.77251017  0.31013906    -0.08700
C272        C  0.58022140  0.77711970  0.28969988    -0.16400
H273        H  0.67315472  0.77795012  0.18648969     0.11800
H274        H  0.63946394  0.77148488  0.21763190     0.11100
H275        H  0.62246403  0.85169199  0.21565656     0.11000
H276        H  0.65593698  0.85833435  0.18430205     0.11500
H277        H  0.55354138  0.83196273  0.26771886     0.11600
H278        H  0.52536339  0.82403060  0.30373584     0.11600
H279        H  0.56746063  0.75579040  0.32172545     0.11700
H280        H  0.59562316  0.76404390  0.28598849     0.10500
C281        C  0.45896713  0.78763848  0.35736154    -0.03300
C282        C  0.44608423  0.80116056  0.37625094    -0.09000
C283        C  0.41997278  0.80549543  0.37426329    -0.16700
C284        C  0.40631182  0.79624231  0.35350948     0.25400
C285        C  0.41893476  0.78243164  0.33482148    -0.18400
C286        C  0.44504909  0.77819793  0.33670931    -0.07300
C287        C  0.37953646  0.80148386  0.35097704    -0.13700
C288        C  0.35734091  0.80648265  0.34814992    -0.13500
C289        C  0.33117759  0.81340506  0.34377268     0.25300
C290        C  0.31147937  0.79984591  0.35531912    -0.18900
C291        C  0.28615851  0.80662165  0.35076575    -0.07300
C292        C  0.28018465  0.82711251  0.33457649    -0.03400
C293        C  0.30018159  0.84063118  0.32316447    -0.08700
C294        C  0.32539055  0.83381909  0.32771300    -0.16400
H295        H  0.45630342  0.80888964  0.39220272     0.11800
H296        H  0.41047820  0.81633571  0.38881969     0.11100
H297        H  0.40865300  0.77514403  0.31870580     0.11000
H298        H  0.45439736  0.76747004  0.32199042     0.11500
H299        H  0.31568046  0.78399621  0.36781795     0.11600
H300        H  0.27130375  0.79584379  0.35989703     0.11600
H301        H  0.29638847  0.85651506  0.31059486     0.11700
H302        H  0.34038819  0.84448062  0.31864472     0.10500
C303        C  0.87255847  0.99412314  0.18957197    -0.03300
C304        C  0.87675033  0.97090450  0.17706713    -0.09000
C305        C  0.85649782  0.95500055  0.17076862    -0.16700
C306        C  0.83171194  0.96203947  0.17674922     0.25400
C307        C  0.82723567  0.98530743  0.18876941    -0.18400
C308        C  0.84751691  0.00128645  0.19511310    -0.07300
C309        C  0.81114734  0.94486184  0.17121607    -0.13700
C310        C  0.79505299  0.92913446  0.16686993    -0.13500
C311        C  0.77713827  0.90899276  0.16206389     0.25300
C312        C  0.75123420  0.91282554  0.16601353    -0.18900
C313        C  0.73406602  0.89290406  0.16203704    -0.07300
C314        C  0.74259786  0.86885445  0.15405271    -0.03400
C315        C  0.76866800  0.86528424  0.14999479    -0.08700
C316        C  0.78577084  0.88520470  0.15397084    -0.16400
H317        H  0.89573468  0.96501843  0.17213173     0.11800
H318        H  0.86020461  0.93708006  0.16142786     0.11100
H319        H  0.80812521  0.99092801  0.19356315     0.11000
H320        H  0.84367039  0.01890985  0.20491265     0.11500
H321        H  0.74432388  0.93114859  0.17227050     0.11600
H322        H  0.71409963  0.89635990  0.16504759     0.11600
H323        H  0.77591359  0.84692946  0.14422432     0.11700
H324        H  0.80579176  0.88196472  0.15097805     0.10500
C325        C  0.10415769  0.90113498  0.28458627    -0.03300
C326        C  0.09280899  0.89664772  0.26092189    -0.09000
C327        C  0.07277289  0.91194526  0.25236237    -0.16700
C328        C  0.06377215  0.93194008  0.26728822     0.25400
C329        C  0.07485022  0.93645477  0.29088381    -0.18400
C330        C  0.09486724  0.92122138  0.29947020    -0.07300
C331        C  0.04314316  0.94774588  0.25846020    -0.13700
C332        C  0.02563060  0.96052102  0.25088244    -0.13500
C333        C  0.00417974  0.97458443  0.24114890     0.25300
C334        C  0.99715516  0.99798872  0.25166145    -0.18900
C335        C  0.97581549  0.01104207  0.24250302    -0.07300
C336        C  0.96118399  0.00081402  0.22269512    -0.03400
C337        C  0.96878727  0.97752954  0.21198448    -0.08700
C338        C  0.98999594  0.96453166  0.22119770    -0.16400
H339        H  0.09954264  0.88146246  0.24891443     0.11800
H340        H  0.06436189  0.90822894  0.23406295     0.11100
H341        H  0.06806826  0.95183134  0.30264424     0.11000
H342        H  0.10316437  0.92530591  0.31773484     0.11500
H343        H  0.00798189  0.00599960  0.26713184     0.11600
H344        H  0.97042546  0.02877051  0.25133106     0.11600
H345        H  0.95833815  0.96931740  0.19638992     0.11700
H346        H  0.99526609  0.94651685  0.21279812     0.10500
C347        C  0.91267836  0.08054754  0.19891037    -0.03300
C348        C  0.93371180  0.09453100  0.19028790    -0.09000
C349        C  0.93200416  0.12088412  0.18642392    -0.16700
C350        C  0.90929038  0.13372996  0.19110057     0.25400
C351        C  0.88835480  0.12007487  0.19999274    -0.18400
C352        C  0.89002664  0.09373609  0.20392258    -0.07300
C353        C  0.90721916  0.16070733  0.18593972    -0.13700
C354        C  0.90502302  0.18302252  0.18062242    -0.13500
C355        C  0.90139793  0.20922592  0.17296204     0.25300
C356        C  0.91306948  0.22917734  0.18613236    -0.18900
C357        C  0.90897497  0.25455217  0.17875438    -0.07300
C358        C  0.89313978  0.26028924  0.15805150    -0.03400
C359        C  0.88181220  0.24002358  0.14478810    -0.08700
C360        C  0.88588149  0.21478119  0.15220817    -0.16400
H361        H  0.95131482  0.08502735  0.18588077     0.11800
H362        H  0.94831300  0.13117953  0.17941615     0.11100
H363        H  0.87065146  0.12975031  0.20370081     0.11000
H364        H  0.87357536  0.08369808  0.21092365     0.11500
H365        H  0.92520008  0.22513838  0.20220489     0.11600
H366        H  0.91803777  0.26963865  0.18933702     0.11600
H367        H  0.86951130  0.24363775  0.12875272     0.11700
H368        H  0.87676500  0.19957060  0.14181612     0.10500
C369        C  0.83971030  0.43506478  0.08326944    -0.03300
C370        C  0.85305760  0.44213611  0.06136269    -0.09000
C371        C  0.84341800  0.46070550  0.04495620    -0.16700
C372        C  0.82034623  0.47258496  0.05017000     0.25400
C373        C  0.80714726  0.46608228  0.07214941    -0.18400
C374        C  0.81672026  0.44742998  0.08858482    -0.07300
C375        C  0.81019364  0.49133487  0.03291424    -0.13700
C376        C  0.80165228  0.50737086  0.01886846    -0.13500
C377        C  0.79128583  0.52752564  0.00339947     0.25300
C378        C  0.77087155  0.54179484  0.01230590    -0.18900
C379        C  0.76187904  0.56262608  0.99845835    -0.07300
C380        C  0.77328116  0.56968213  0.97549760    -0.03400
C381        C  0.79318577  0.55464344  0.96617388    -0.08700
C382        C  0.80215466  0.53371778  0.98008521    -0.16400
H383        H  0.87074499  0.43296830  0.05659074     0.11800
H384        H  0.85385066  0.46560284  0.02805866     0.11100
H385        H  0.78930746  0.47523079  0.07644797     0.11000
H386        H  0.80595400  0.44244544  0.10522573     0.11500
H387        H  0.76220998  0.53713337  0.03022737     0.11600
H388        H  0.74620168  0.57348187  0.00593408     0.11600
H389        H  0.80246550  0.55964744  0.94866775     0.11700
H390        H  0.81796200  0.52279057  0.97297341     0.10500
C391        C  0.81510513  0.14735491  0.65992387    -0.03300
C392        C  0.82273434  0.12327289  0.66894035    -0.09000
C393        C  0.80485658  0.10395257  0.67301391    -0.16700
C394        C  0.77913689  0.10844829  0.66817356     0.25400
C395        C  0.77142483  0.13231325  0.65918699    -0.18400
C396        C  0.78920183  0.15159806  0.65512382    -0.07300
C397        C  0.76042197  0.08893129  0.67274750    -0.13700
C398        C  0.74352891  0.07387038  0.67649251    -0.13500
C399        C  0.72212679  0.05735116  0.68093355     0.25300
C400        C  0.69792446  0.06491943  0.67308017    -0.18900
C401        C  0.67692318  0.04946473  0.67798077    -0.07300
C402        C  0.67976627  0.02613653  0.69086727    -0.03400
C403        C  0.70422413  0.01854105  0.69845699    -0.08700
C404        C  0.72523029  0.03406085  0.69354161    -0.16400
H405        H  0.84252804  0.11930693  0.67260110     0.11800
H406        H  0.81108331  0.08556131  0.67997237     0.11100
H407        H  0.75158753  0.13610156  0.65549388     0.11000
H408        H  0.78257918  0.17000923  0.64861523     0.11500
H409        H  0.69525572  0.08286110  0.66327193     0.11600
H410        H  0.65844433  0.05572174  0.67155316     0.11600
H411        H  0.70704722  0.00086282  0.70866657     0.11700
H412        H  0.74383939  0.02801317  0.69980710     0.10500
C413        C  0.84303102  0.22356667  0.61015716    -0.03300
C414        C  0.86330035  0.23348499  0.59603125    -0.09000
C415        C  0.85882690  0.25095840  0.57645457    -0.16700
C416        C  0.83407993  0.25877581  0.57080412     0.25400
C417        C  0.81384358  0.24897291  0.58474032    -0.18400
C418        C  0.81825591  0.23151292  0.60423579    -0.07300
C419        C  0.82928976  0.27724691  0.55114188    -0.13700
C420        C  0.82421766  0.29318140  0.53542616    -0.13500
C421        C  0.81727217  0.31295251  0.51774430     0.25300
C422        C  0.79408439  0.32555014  0.52030777    -0.18900
C423        C  0.78780042  0.34570753  0.50414630    -0.07300
C424        C  0.80464064  0.35357432  0.48514739    -0.03400
C425        C  0.82760060  0.34035589  0.48223939    -0.08700
C426        C  0.83389696  0.32022211  0.49850066    -0.16400
H427        H  0.88254917  0.22758462  0.60000223     0.11800
H428        H  0.87465587  0.25843306  0.56581018     0.11100
H429        H  0.79463947  0.25499131  0.58067451     0.11000
H430        H  0.80228264  0.22457339  0.61501267     0.11500
H431        H  0.78101228  0.32003824  0.53504662     0.11600
H432        H  0.76983400  0.35529616  0.50661195     0.11600
H433        H  0.84102327  0.34611901  0.46792342     0.11700
H434        H  0.85190805  0.31063718  0.49634666     0.10500
C435        C  0.80320597  0.39734180  0.40065588    -0.03300
C436        C  0.82502254  0.38532789  0.39124669    -0.09000
C437        C  0.82914579  0.38363432  0.36525012    -0.16700
C438        C  0.81160526  0.39392363  0.34816460     0.25400
C439        C  0.79001218  0.40626774  0.35730305    -0.18400
C440        C  0.78585152  0.40801573  0.38335881    -0.07300
C441        C  0.81576498  0.39138351  0.32134700    -0.13700
C442        C  0.82037652  0.38828507  0.29923324    -0.13500
C443        C  0.82738706  0.38353657  0.27333465     0.25300
C444        C  0.81351653  0.39417216  0.25330258    -0.18900
C445        C  0.82064034  0.38954195  0.22825701    -0.07300
C446        C  0.84178851  0.37417640  0.22290655    -0.03400
C447        C  0.85551831  0.36354892  0.24322723    -0.08700
C448        C  0.84837120  0.36819281  0.26817012    -0.16400
H449        H  0.83894619  0.37725530  0.40401468     0.11800
H450        H  0.84599929  0.37412177  0.35846023     0.11100
H451        H  0.77626339  0.41429155  0.34430449     0.11000
H452        H  0.76875131  0.41715352  0.38995094     0.11500
H453        H  0.79720388  0.40608012  0.25702934     0.11600
H454        H  0.80962790  0.39798140  0.21313363     0.11600
H455        H  0.87187201  0.35159433  0.23989674     0.11700
H456        H  0.85925851  0.35982813  0.28344397     0.10500
C457        C  0.89067979  0.19831199  0.68871754    -0.03300
C458        C  0.89593110  0.22346612  0.69625230    -0.09000
C459        C  0.91462078  0.22847054  0.71436204    -0.16700
C460        C  0.92839478  0.20846574  0.72527547     0.25400
C461        C  0.92334473  0.18336406  0.71793393    -0.18400
C462        C  0.90462504  0.17830321  0.69980646    -0.07300
C463        C  0.94743747  0.21380177  0.74418736    -0.13700
C464        C  0.96290507  0.21899605  0.76024839    -0.13500
C465        C  0.98064943  0.22591051  0.77988564     0.25300
C466        C  0.00008104  0.20918971  0.78703162    -0.18900
C467        C  0.01664990  0.21560099  0.80672889    -0.07300
C468        C  0.01395386  0.23882008  0.81963730    -0.03400
C469        C  0.99466300  0.25569389  0.81197539    -0.08700
C470        C  0.97815866  0.24926811  0.79227920    -0.16400
H471        H  0.88527996  0.23928636  0.68846797     0.11800
H472        H  0.91821858  0.24795931  0.71996430     0.11100
H473        H  0.93385795  0.16769596  0.72622799     0.11000
H474        H  0.90122701  0.15876677  0.69428280     0.11500
H475        H  0.00220439  0.19104171  0.77762903     0.11600
H476        H  0.03110383  0.20207161  0.81234375     0.11600
H477        H  0.99228176  0.27385438  0.82129121     0.11700
H478        H  0.96328169  0.26242892  0.78688403     0.10500
C479        C  0.02209239  0.27142976  0.90777612    -0.03300
C480        C  0.00395786  0.29093619  0.90524063    -0.09000
C481        C  0.99002828  0.29913945  0.92606572    -0.16700
C482        C  0.99396277  0.28805302  0.94981838     0.25400
C483        C  0.01260109  0.26924279  0.95275150    -0.18400
C484        C  0.02664548  0.26102899  0.93188986    -0.07300
C485        C  0.97824356  0.29549829  0.97081944    -0.13700
C486        C  0.96439249  0.30203722  0.98772785    -0.13500
C487        C  0.94779714  0.31045721  0.00766991     0.25300
C488        C  0.92722791  0.29544670  0.01528788    -0.18900
C489        C  0.91148475  0.30352036  0.03495070    -0.07300
C490        C  0.91610074  0.32677431  0.04729897    -0.03400
C491        C  0.93658936  0.34188164  0.03918427    -0.08700
C492        C  0.95226734  0.33377534  0.01957861    -0.16400
H493        H  0.00024427  0.29955597  0.88699340     0.11800
H494        H  0.97580985  0.31381237  0.92352013     0.11100
H495        H  0.01588530  0.26051714  0.97103665     0.11000
H496        H  0.04030870  0.24586051  0.93441485     0.11500
H497        H  0.92348048  0.27738556  0.00617943     0.11600
H498        H  0.89594764  0.29139888  0.04070667     0.11600
H499        H  0.94077237  0.35987227  0.04822073     0.11700
H500        H  0.96803433  0.34563245  0.01385094     0.10500
C501        C  0.09927415  0.23758552  0.86235828    -0.03300
C502        C  0.10785448  0.21576763  0.84955370    -0.09000
C503        C  0.13374883  0.21050943  0.84763870    -0.16700
C504        C  0.15161432  0.22682227  0.85858548     0.25400
C505        C  0.14331876  0.24827141  0.87185099    -0.18400
C506        C  0.11737675  0.25362161  0.87374690    -0.07300
C507        C  0.17837056  0.22176636  0.85560529    -0.13700
C508        C  0.20048716  0.21697423  0.85207448    -0.13500
C509        C  0.22649982  0.21032983  0.84670934     0.25300
C510        C  0.24653019  0.22561851  0.85523464    -0.18900
C511        C  0.27166977  0.21912643  0.84968570    -0.07300
C512        C  0.27713535  0.19722980  0.83544816    -0.03400
C513        C  0.25682116  0.18201068  0.82702502    -0.08700
C514        C  0.23179127  0.18850562  0.83261331    -0.16400
H515        H  0.09453241  0.20269689  0.84097939     0.11800
H516        H  0.13984573  0.19377180  0.83741232     0.11100
H517        H  0.15691589  0.26108491  0.88041719     0.11000
H518        H  0.11155134  0.27068770  0.88353159     0.11500
H519        H  0.24272308  0.24260362  0.86614411     0.11600
H520        H  0.28678062  0.23125993  0.85647023     0.11600
H521        H  0.26022609  0.16497410  0.81607519     0.11700
H522        H  0.21653795  0.17649818  0.82587412     0.10500
C523        C  0.58954865  0.01912838  0.71909746    -0.03300
C524        C  0.57623089  0.00969794  0.74009912    -0.09000
C525        C  0.55507555  0.02273815  0.74933399    -0.16700
C526        C  0.54686131  0.04525369  0.73760828     0.25400
C527        C  0.55959957  0.05434770  0.71628886    -0.18400
C528        C  0.58077868  0.04142726  0.70711580    -0.07300
C529        C  0.52604357  0.05966068  0.74787117    -0.13700
C530        C  0.50928986  0.07284053  0.75615887    -0.13500
C531        C  0.48975059  0.08947131  0.76560075     0.25300
C532        C  0.48003681  0.10895090  0.75025350    -0.18900
C533        C  0.46102080  0.12507191  0.75924109    -0.07300
C534        C  0.45135500  0.12192300  0.78377065    -0.03400
C535        C  0.46143728  0.10243041  0.79916354    -0.08700
C536        C  0.48049830  0.08636718  0.79014166    -0.16400
H537        H  0.58265703  0.99271551  0.74984505     0.11800
H538        H  0.54542166  0.01551388  0.76587958     0.11100
H539        H  0.55340613  0.07167221  0.70698089     0.11000
H540        H  0.59044219  0.04897127  0.69072238     0.11500
H541        H  0.48706490  0.11159793  0.73123298     0.11600
H542        H  0.45362685  0.13973476  0.74683370     0.11600
H543        H  0.45442881  0.09940394  0.81811891     0.11700
H544        H  0.48789631  0.07143999  0.80225090     0.10500
C545        C  0.04474039  0.72991810  0.62305682    -0.03300
C546        C  0.03652431  0.73689535  0.64730932    -0.09000
C547        C  0.05222696  0.73316113  0.66838117    -0.16700
C548        C  0.07627391  0.72237099  0.66547448     0.25400
C549        C  0.08441150  0.71502336  0.64150501    -0.18400
C550        C  0.06878252  0.71869263  0.62048139    -0.07300
C551        C  0.09295365  0.71907702  0.68682193    -0.13700
C552        C  0.10836684  0.71587793  0.70340322    -0.13500
C553        C  0.12824854  0.71152405  0.72160737     0.25300
C554        C  0.15227002  0.70420641  0.71331678    -0.18900
C555        C  0.17177407  0.69995994  0.73071438    -0.07300
C556        C  0.16755126  0.70295451  0.75672919    -0.03400
C557        C  0.14332395  0.71032159  0.76492215    -0.08700
C558        C  0.12379726  0.71456251  0.74744746    -0.16400
H559        H  0.01824844  0.74581223  0.64990259     0.11800
H560        H  0.04574083  0.73894987  0.68685259     0.11100
H561        H  0.10293807  0.70656862  0.63903239     0.11000
H562        H  0.07552538  0.71271274  0.60216525     0.11500
H563        H  0.15596066  0.70188774  0.69337301     0.11600
H564        H  0.19030243  0.69472740  0.72375933     0.11600
H565        H  0.13942489  0.71254637  0.78482923     0.11700
H566        H  0.10525652  0.72017786  0.75408572     0.10500
C567        C  0.14043322  0.82482530  0.39516309    -0.03300
C568        C  0.14495133  0.80070131  0.40594965    -0.09000
C569        C  0.12930184  0.79129418  0.42511239    -0.16700
C570        C  0.10892467  0.80582829  0.43382861     0.25400
C571        C  0.10440183  0.82993075  0.42337540    -0.18400
C572        C  0.11998901  0.83936617  0.40418980    -0.07300
C573        C  0.09276709  0.79603017  0.45353770    -0.13700
C574        C  0.07976947  0.78760374  0.47033610    -0.13500
C575        C  0.06535107  0.77714266  0.49103467     0.25300
C576        C  0.04182590  0.78749781  0.49756983    -0.18900
C577        C  0.02849141  0.77789356  0.51837043    -0.07300
C578        C  0.03861563  0.75788510  0.53298783    -0.03400
C579        C  0.06199781  0.74727130  0.52589114    -0.08700
C580        C  0.07523163  0.75684289  0.50512858    -0.16400
H581        H  0.16037885  0.78892369  0.39936129     0.11800
H582        H  0.13302513  0.77261926  0.43304085     0.11100
H583        H  0.08872643  0.84140570  0.42996555     0.11000
H584        H  0.11587827  0.85795716  0.39628794     0.11500
H585        H  0.03397090  0.80324120  0.48683081     0.11600
H586        H  0.01066883  0.78660027  0.52347550     0.11600
H587        H  0.07013952  0.73161577  0.53652228     0.11700
H588        H  0.09334622  0.74857534  0.50024243     0.10500
C589        C  0.24433159  0.65373471  0.78402416    -0.03300
C590        C  0.23591271  0.62960511  0.77600330    -0.09000
C591        C  0.25326768  0.61021386  0.77071187    -0.16700
C592        C  0.27927651  0.61460148  0.77340605     0.25400
C593        C  0.28781537  0.63843571  0.78160660    -0.18400
C594        C  0.27051387  0.65785108  0.78688262    -0.07300
C595        C  0.29730818  0.59482672  0.76765481    -0.13700
C596        C  0.31335981  0.57913763  0.76309090    -0.13500
C597        C  0.33387817  0.56175411  0.75806946     0.25300
C598        C  0.35864132  0.56868084  0.76450594    -0.18900
C599        C  0.37881325  0.55236760  0.75923702    -0.07300
C600        C  0.37459366  0.52880886  0.74732899    -0.03400
C601        C  0.34957966  0.52177194  0.74127137    -0.08700
C602        C  0.32936530  0.53818324  0.74656912    -0.16400
H603        H  0.21589886  0.62568927  0.77390060     0.11800
H604        H  0.24639793  0.59184174  0.76445543     0.11100
H605        H  0.30789870  0.64210079  0.78370969     0.11000
H606        H  0.27767495  0.67626721  0.79262349     0.11500
H607        H  0.36239375  0.58679705  0.77350114     0.11600
H608        H  0.39776941  0.55818961  0.76452561     0.11600
H609        H  0.34572324  0.50389655  0.73190725     0.11700
H610        H  0.31027312  0.53260052  0.74146753     0.10500
C611        C  0.41496938  0.44200521  0.74247051    -0.03300
C612        C  0.42517812  0.42478968  0.72491026    -0.09000
C613        C  0.42331437  0.39840262  0.72885112    -0.16700
C614        C  0.41132138  0.38880011  0.75043343     0.25400
C615        C  0.40134941  0.40579488  0.76809495    -0.18400
C616        C  0.40315140  0.43211768  0.76418143    -0.07300
C617        C  0.40897935  0.36161877  0.75459466    -0.13700
C618        C  0.40605209  0.33925039  0.75944168    -0.13500
C619        C  0.40132060  0.31315382  0.76702649     0.25300
C620        C  0.38639679  0.30824847  0.78825183    -0.18900
C621        C  0.38158894  0.28319232  0.79591677    -0.07300
C622        C  0.39162688  0.26244230  0.78248589    -0.03400
C623        C  0.40666701  0.26750329  0.76114332    -0.08700
C624        C  0.41145730  0.29268314  0.75348550    -0.16400
H625        H  0.43417858  0.43171667  0.70790304     0.11800
H626        H  0.43109228  0.38551040  0.71498974     0.11100
H627        H  0.39212148  0.39869433  0.78492073     0.11000
H628        H  0.39545573  0.44476191  0.77830494     0.11500
H629        H  0.37842923  0.32383932  0.79892308     0.11600
H630        H  0.36994156  0.28011452  0.81241806     0.11600
H631        H  0.41467584  0.25204817  0.75034862     0.11700
H632        H  0.42304794  0.29616604  0.73700893     0.10500
C633        C  0.25350133  0.85929941  0.95943019    -0.03300
C634        C  0.27027311  0.85222813  0.94010890    -0.09000
C635        C  0.26408870  0.83256173  0.92349304    -0.16700
C636        C  0.24111474  0.81954719  0.92593586     0.25400
C637        C  0.22452930  0.82599795  0.94545279    -0.18400
C638        C  0.23068839  0.84571836  0.96213427    -0.07300
C639        C  0.23446666  0.80009523  0.90793171    -0.13700
C640        C  0.22974187  0.78442550  0.89196308    -0.13500
C641        C  0.22495177  0.76628324  0.87212726     0.25300
C642        C  0.22841421  0.74019915  0.87651088    -0.18900
C643        C  0.22441210  0.72268062  0.85704037    -0.07300
C644        C  0.21686145  0.73101779  0.83287646    -0.03400
C645        C  0.21338914  0.75729218  0.82869295    -0.08700
C646        C  0.21740765  0.77476072  0.84817179    -0.16400
H647        H  0.28815211  0.86202937  0.93774332     0.11800
H648        H  0.27712584  0.82769919  0.90853980     0.11100
H649        H  0.20667156  0.81608375  0.94752254     0.11000
H650        H  0.21726782  0.85085820  0.97663516     0.11500
H651        H  0.23427370  0.73340196  0.89495358     0.11600
H652        H  0.22697521  0.70258873  0.86095589     0.11600
H653        H  0.20797215  0.76439297  0.81023281     0.11700
H654        H  0.21482659  0.79490483  0.84448293     0.10500
C655        C  0.25328287  0.90216723  0.04437804    -0.03300
C656        C  0.23134029  0.89002451  0.05344028    -0.09000
C657        C  0.22632731  0.88903443  0.07932830    -0.16700
C658        C  0.24308790  0.90019199  0.09658465     0.25400
C659        C  0.26484539  0.91250873  0.08778338    -0.18400
C660        C  0.26992338  0.91350233  0.06188893    -0.07300
C661        C  0.23819312  0.89838683  0.12329673    -0.13700
C662        C  0.23353105  0.89559431  0.14542837    -0.13500
C663        C  0.22689683  0.89038953  0.17131867     0.25300
C664        C  0.23961849  0.90238087  0.19127047    -0.18900
C665        C  0.23326257  0.89666928  0.21633718    -0.07300
C666        C  0.21405289  0.87887761  0.22171443    -0.03400
C667        C  0.20135949  0.86708073  0.20145985    -0.08700
C668        C  0.20774857  0.87277887  0.17652987    -0.16400
H669        H  0.21794006  0.88144122  0.04050112     0.11800
H670        H  0.20939338  0.87945240  0.08590045     0.11100
H671        H  0.27802851  0.92111840  0.10094984     0.11000
H672        H  0.28714352  0.92270077  0.05562183     0.11500
H673        H  0.25450706  0.91606799  0.18746302     0.11600
H674        H  0.24333552  0.90615117  0.23144449     0.11600
H675        H  0.18646227  0.85329747  0.20482909     0.11700
H676        H  0.19779538  0.86335080  0.16129487     0.10500
C677        C  0.28570231  0.94828870  0.96744933    -0.03300
C678        C  0.27560684  0.97256838  0.97228563    -0.09000
C679        C  0.28382738  0.99378854  0.95844599    -0.16700
C680        C  0.30230525  0.99097067  0.93976986     0.25400
C681        C  0.31316231  0.96707269  0.93562905    -0.18400
C682        C  0.30496131  0.94589843  0.94936045    -0.07300
C683        C  0.30950323  0.01216427  0.92400024    -0.13700
C684        C  0.31602027  0.02889487  0.90976079    -0.13500
C685        C  0.32474683  0.04827388  0.89253520     0.25300
C686        C  0.34877966  0.05893283  0.89586077    -0.18900
C687        C  0.35730312  0.07801162  0.87953296    -0.07300
C688        C  0.34189895  0.08678551  0.85955812    -0.03400
C689        C  0.31792562  0.07558941  0.85602289    -0.08700
C690        C  0.30942324  0.05645810  0.87243679    -0.16400
H691        H  0.26065911  0.97495070  0.98598727     0.11800
H692        H  0.27532792  0.01221855  0.96185480     0.11100
H693        H  0.32758593  0.96468348  0.92136275     0.11000
H694        H  0.31335644  0.92751042  0.94551366     0.11500
H695        H  0.36086164  0.05266289  0.91123785     0.11600
H696        H  0.37586272  0.08616659  0.88283447     0.11600
H697        H  0.30557379  0.08192343  0.84090109     0.11700
H698        H  0.29080808  0.04823341  0.86959736     0.10500
C699        C  0.95963943  0.73155665  0.57992406    -0.03300
C700        C  0.94973218  0.70997185  0.59227567    -0.09000
C701        C  0.92355896  0.70607271  0.59367423    -0.16700
C702        C  0.90678610  0.72363951  0.58277417     0.25400
C703        C  0.91643827  0.74506089  0.57022980    -0.18400
C704        C  0.94265664  0.74897800  0.56875668    -0.07300
C705        C  0.87975692  0.71973692  0.58489610    -0.13700
C706        C  0.85741793  0.71554611  0.58776035    -0.13500
C707        C  0.83125030  0.70912900  0.59266520     0.25300
C708        C  0.81148707  0.72493663  0.58433852    -0.18900
C709        C  0.78622676  0.71868629  0.58974241    -0.07300
C710        C  0.78040394  0.69653076  0.60362882    -0.03400
C711        C  0.80045192  0.68075020  0.61173018    -0.08700
C712        C  0.82557428  0.68699716  0.60628802    -0.16400
H713        H  0.96224512  0.69598952  0.60074829     0.11800
H714        H  0.91639729  0.68937402  0.60337323     0.11100
H715        H  0.90370041  0.75885866  0.56176292     0.11000
H716        H  0.94963034  0.76589723  0.55934693     0.11500
H717        H  0.81559555  0.74214976  0.57377273     0.11600
H718        H  0.77131421  0.73123222  0.58318418     0.11600
H719        H  0.79677318  0.66349035  0.62236548     0.11700
H720        H  0.84062010  0.67457747  0.61284377     0.10500
C721        C  0.71549684  0.64533884  0.71820621    -0.03300
C722        C  0.73765652  0.63147740  0.72374890    -0.09000
C723        C  0.74431549  0.62599402  0.74884585    -0.16700
C724        C  0.72890832  0.63421344  0.76868009     0.25400
C725        C  0.70683649  0.64792476  0.76330306    -0.18400
C726        C  0.70018484  0.65345858  0.73833542    -0.07300
C727        C  0.73567694  0.62898954  0.79461267    -0.13700
C728        C  0.74044780  0.62570182  0.81671070    -0.13500
C729        C  0.74542305  0.62305868  0.84340696     0.25300
C730        C  0.75793484  0.64253273  0.85642298    -0.18900
C731        C  0.76184189  0.64063150  0.88249330    -0.07300
C732        C  0.75325010  0.61919003  0.89600203    -0.03400
C733        C  0.74105966  0.59949898  0.88269815    -0.08700
C734        C  0.73712146  0.60146812  0.85659878    -0.16400
H735        H  0.74986657  0.62497815  0.70874749     0.11800
H736        H  0.76149996  0.61540176  0.75277324     0.11100
H737        H  0.69476302  0.65441644  0.77844147     0.11000
H738        H  0.68295890  0.66411382  0.73483883     0.11500
H739        H  0.76447154  0.65933771  0.84644807     0.11600
H740        H  0.77157875  0.65595604  0.89210895     0.11600
H741        H  0.73396605  0.58289345  0.89257785     0.11700
H742        H  0.72730009  0.58631582  0.84677847     0.10500
C743        C  0.66603835  0.76158691  0.65788474    -0.03300
C744        C  0.67892567  0.78248615  0.64722712    -0.09000
C745        C  0.67364288  0.80735570  0.65496592    -0.16700
C746        C  0.65535485  0.81187551  0.67343787     0.25400
C747        C  0.64246712  0.79124813  0.68427615    -0.18400
C748        C  0.64778341  0.76627155  0.67660405    -0.07300
C749        C  0.64987877  0.83773675  0.68094188    -0.13700
C750        C  0.64630325  0.85986699  0.68609293    -0.13500
C751        C  0.64329732  0.88675325  0.69105334     0.25300
C752        C  0.66304924  0.90048224  0.70228527    -0.18900
C753        C  0.66090698  0.92680373  0.70572827    -0.07300
C754        C  0.63893471  0.93988767  0.69796126    -0.03400
C755        C  0.61894471  0.92586152  0.68715589    -0.08700
C756        C  0.62115239  0.89950508  0.68368202    -0.16400
H757        H  0.69314315  0.77965950  0.63284559     0.11800
H758        H  0.68378789  0.82309721  0.64644225     0.11100
H759        H  0.62825092  0.79446057  0.69859185     0.11000
H760        H  0.63748374  0.75068430  0.68517466     0.11500
H761        H  0.68029210  0.89088038  0.70810257     0.11600
H762        H  0.67648045  0.93695266  0.71443881     0.11600
H763        H  0.60188900  0.93537337  0.68074040     0.11700
H764        H  0.60576306  0.88915511  0.67485517     0.10500
C765        C  0.64119888  0.70147501  0.54532634    -0.03300
C766        C  0.64605366  0.72557760  0.53465349    -0.09000
C767        C  0.63049477  0.73525751  0.51540952    -0.16700
C768        C  0.60986898  0.72103821  0.50655997     0.25400
C769        C  0.60504873  0.69695782  0.51687189    -0.18400
C770        C  0.62056338  0.68723559  0.53608206    -0.07300
C771        C  0.59367382  0.73107259  0.48689038    -0.13700
C772        C  0.58036817  0.73927018  0.47012727    -0.13500
C773        C  0.56537370  0.74898761  0.44938669     0.25300
C774        C  0.54282972  0.73685505  0.44222454    -0.18900
C775        C  0.52916203  0.74549952  0.42113352    -0.07300
C776        C  0.53802157  0.76626867  0.40684684    -0.03400
C777        C  0.56032209  0.77871412  0.41459097    -0.08700
C778        C  0.57386435  0.77014485  0.43569716    -0.16400
H779        H  0.66169186  0.73708556  0.54135066     0.11800
H780        H  0.63446723  0.75390972  0.50754143     0.11100
H781        H  0.58919053  0.68573830  0.51016630     0.11000
H782        H  0.61618780  0.66866122  0.54388823     0.11500
H783        H  0.53608359  0.72042024  0.45263653     0.11600
H784        H  0.51218546  0.73542190  0.41546042     0.11600
H785        H  0.56744545  0.79492756  0.40409207     0.11700
H786        H  0.59120618  0.77975091  0.44106643     0.10500
C787        C  0.71529511  0.58651596  0.57934280    -0.03300
C788        C  0.73843005  0.57421758  0.58458031    -0.09000
C789        C  0.74681780  0.55415537  0.56939588    -0.16700
C790        C  0.73227420  0.54607229  0.54875857     0.25400
C791        C  0.70917835  0.55807163  0.54349487    -0.18400
C792        C  0.70075377  0.57812005  0.55863053    -0.07300
C793        C  0.74093894  0.52542668  0.53305405    -0.13700
C794        C  0.74795607  0.50784861  0.52018306    -0.13500
C795        C  0.75607271  0.48614953  0.50562245     0.25300
C796        C  0.74662649  0.46192098  0.51133219    -0.18900
C797        C  0.75506275  0.44063362  0.49802853    -0.07300
C798        C  0.77321277  0.44317074  0.47878816    -0.03400
C799        C  0.78221939  0.46767871  0.47276915    -0.08700
C800        C  0.77372232  0.48900809  0.48613782    -0.16400
H801        H  0.75014964  0.58021690  0.60026826     0.11800
H802        H  0.76472906  0.54500184  0.57371420     0.11100
H803        H  0.69771811  0.55199897  0.52763721     0.11000
H804        H  0.68289020  0.58716850  0.55396338     0.11500
H805        H  0.73288956  0.45943019  0.52626798     0.11600
H806        H  0.74744389  0.42211380  0.50288536     0.11600
H807        H  0.79636518  0.47026445  0.45826381     0.11700
H808        H  0.78119904  0.50765886  0.48152887     0.10500
C809        C  0.46323739  0.52090450  0.71571783    -0.03300
C810        C  0.47099544  0.54432566  0.72609056    -0.09000
C811        C  0.49190857  0.55736204  0.71642847    -0.16700
C812        C  0.50561955  0.54723813  0.69630816     0.25400
C813        C  0.49846458  0.52365728  0.68615814    -0.18400
C814        C  0.47744243  0.51053247  0.69582527    -0.07300
C815        C  0.52672872  0.56142082  0.68609834    -0.13700
C816        C  0.54398008  0.57443257  0.67839992    -0.13500
C817        C  0.56437454  0.59064937  0.66982465     0.25300
C818        C  0.57565732  0.58643372  0.64635517    -0.18900
C819        C  0.59555925  0.60199095  0.63816113    -0.07300
C820        C  0.60453689  0.62208882  0.65331037    -0.03400
C821        C  0.59294564  0.62629375  0.67681305    -0.08700
C822        C  0.57303231  0.61069474  0.68496597    -0.16400
H823        H  0.46081605  0.55265675  0.74171039     0.11800
H824        H  0.49727635  0.57547847  0.72456814     0.11100
H825        H  0.50892268  0.51557347  0.67058390     0.11000
H826        H  0.47189328  0.49266237  0.68730212     0.11500
H827        H  0.56916667  0.57103578  0.63443255     0.11600
H828        H  0.60406300  0.59810341  0.62001049     0.11600
H829        H  0.59940749  0.64146775  0.68901399     0.11700
H830        H  0.56446687  0.61420066  0.70318225     0.10500
C831        C  0.18087239  0.49625830  0.25455289    -0.03300
C832        C  0.20570421  0.50342868  0.24816680    -0.09000
C833        C  0.22608820  0.48718708  0.25348736    -0.16700
C834        C  0.22191651  0.46369035  0.26537194     0.25400
C835        C  0.19733877  0.45667737  0.27225679    -0.18400
C836        C  0.17697198  0.47282046  0.26691576    -0.07300
C837        C  0.24259961  0.44634581  0.26990712    -0.13700
C838        C  0.25899997  0.43073223  0.27350188    -0.13500
C839        C  0.27746062  0.41091567  0.27758564     0.25300
C840        C  0.26954947  0.38676264  0.28553400    -0.18900
C841        C  0.28719225  0.36721120  0.28894675    -0.07300
C842        C  0.31308985  0.37151556  0.28446365    -0.03400
C843        C  0.32090662  0.39592178  0.27662365    -0.08700
C844        C  0.30318944  0.41548209  0.27321061    -0.16400
H845        H  0.20925231  0.52123705  0.23844259     0.11800
H846        H  0.24503180  0.49278947  0.24800719     0.11100
H847        H  0.19387121  0.43858273  0.28151777     0.11000
H848        H  0.15812289  0.46693884  0.27238487     0.11500
H849        H  0.24967976  0.38296070  0.28886716     0.11600
H850        H  0.28048526  0.34856907  0.29460814     0.11600
H851        H  0.34071987  0.39992495  0.27329705     0.11700
H852        H  0.30954161  0.43410915  0.26707537     0.10500
C853        C  0.13991768  0.58254937  0.24783739    -0.03300
C854        C  0.16218928  0.59603059  0.24196686    -0.09000
C855        C  0.16373836  0.62233211  0.24585879    -0.16700
C856        C  0.14307701  0.63566181  0.25566714     0.25400
C857        C  0.12071475  0.62249997  0.26131372    -0.18400
C858        C  0.11910184  0.59615316  0.25738295    -0.07300
C859        C  0.14526347  0.66263087  0.26065230    -0.13700
C860        C  0.14829368  0.68491222  0.26554327    -0.13500
C861        C  0.15327378  0.71104006  0.27251265     0.25300
C862        C  0.14739596  0.73112188  0.25599366    -0.18900
C863        C  0.15282010  0.75634824  0.26277014    -0.07300
C864        C  0.16437219  0.76181653  0.28613071    -0.03400
C865        C  0.17009903  0.74147839  0.30259893    -0.08700
C866        C  0.16454758  0.71635826  0.29585403    -0.16400
H867        H  0.17843206  0.58623553  0.23424084     0.11800
H868        H  0.18113654  0.63223830  0.24138918     0.11100
H869        H  0.10460829  0.63254636  0.26903831     0.11000
H870        H  0.10179770  0.58634539  0.26233696     0.11500
H871        H  0.13872752  0.72728235  0.23782588     0.11600
H872        H  0.14821259  0.77151898  0.24964015     0.11600
H873        H  0.17884520  0.74496032  0.32079870     0.11700
H874        H  0.16919027  0.70103847  0.30882858     0.10500
C875        C  0.95253628  0.40071537  0.15887909    -0.03300
C876        C  0.96101928  0.42161005  0.14443536    -0.09000
C877        C  0.98080635  0.43704045  0.15313357    -0.16700
C878        C  0.99244827  0.43189041  0.17637596     0.25400
C879        C  0.98435686  0.41100546  0.19075741    -0.18400
C880        C  0.96455750  0.39553328  0.18210207    -0.10100
C881        C  0.01265936  0.44801594  0.18545290    -0.13700
C882        C  0.02984359  0.46123278  0.19292536    -0.13500
C883        C  0.05109831  0.47618544  0.20159013     0.25300
C884        C  0.04801779  0.49463120  0.22039418    -0.18900
C885        C  0.06896774  0.50834167  0.22936901    -0.07300
C886        C  0.09327111  0.50356578  0.21977348    -0.03400
C887        C  0.09607492  0.48537199  0.20056436    -0.08700
C888        C  0.07515143  0.47182958  0.19153470    -0.16400
H889        H  0.95220788  0.42621950  0.12650850     0.11800
H890        H  0.98692043  0.45310132  0.14177585     0.11100
H891        H  0.99324541  0.40676637  0.20874496     0.11000
H892        H  0.95850089  0.37967104  0.19373513     0.11500
H893        H  0.02950355  0.49815209  0.22837190     0.11600
H894        H  0.06633666  0.52206724  0.24432374     0.11600
H895        H  0.11455236  0.48148087  0.19267822     0.11700
H896        H  0.07779965  0.45770892  0.17694275     0.10500
C897        C  0.34301571  0.29400530  0.33135516    -0.03300
C898        C  0.33813375  0.30249085  0.35602277    -0.09000
C899        C  0.33489900  0.28499490  0.37573486    -0.16700
C900        C  0.33643840  0.25883151  0.37103583     0.25400
C901        C  0.34129182  0.25022708  0.34656149    -0.18400
C902        C  0.34459507  0.26767432  0.32685568    -0.07300
C903        C  0.33272778  0.24069972  0.39114155    -0.13700
C904        C  0.32932540  0.22459354  0.40706013    -0.13500
C905        C  0.32476545  0.20413074  0.42462772     0.25300
C906        C  0.33056508  0.17912757  0.41774561    -0.18900
C907        C  0.32482817  0.15893169  0.43395814    -0.07300
C908        C  0.31306943  0.16343314  0.45730140    -0.03400
C909        C  0.30791874  0.18869406  0.46439337    -0.08700
C910        C  0.31369379  0.20891992  0.44810252    -0.16400
H911        H  0.33704348  0.32264712  0.36008526     0.11800
H912        H  0.33115627  0.29186946  0.39460697     0.11100
H913        H  0.34238368  0.23002359  0.34268231     0.11000
H914        H  0.34796298  0.26056634  0.30800231     0.11500
H915        H  0.33919814  0.17519663  0.39966102     0.11600
H916        H  0.32941719  0.13973950  0.42814717     0.11600
H917        H  0.29869292  0.19273490  0.48213437     0.11700
H918        H  0.30907873  0.22821164  0.45359775     0.10500
C919        C  0.30514506  0.12229195  0.54277246    -0.03300
C920        C  0.32758138  0.13254306  0.55292641    -0.09000
C921        C  0.33108412  0.13409067  0.57904166    -0.16700
C922        C  0.31225105  0.12540837  0.59546287     0.25400
C923        C  0.28995121  0.11491502  0.58558940    -0.18400
C924        C  0.28641529  0.11331185  0.55941739    -0.07300
C925        C  0.31580847  0.12786040  0.62235892    -0.13700
C926        C  0.31999955  0.13116100  0.64453444    -0.13500
C927        C  0.32658588  0.13663630  0.67040641     0.25300
C928        C  0.31516051  0.12342989  0.69036917    -0.18900
C929        C  0.32193917  0.12885035  0.71539942    -0.07300
C930        C  0.34034280  0.14749171  0.72074133    -0.03400
C931        C  0.35159448  0.16068542  0.70049359    -0.08700
C932        C  0.34473650  0.15531374  0.67558766    -0.16400
H933        H  0.34253067  0.13927032  0.54064442     0.11800
H934        H  0.34842991  0.14218581  0.58642362     0.11100
H935        H  0.27518546  0.10819711  0.59810916     0.11000
H936        H  0.26884934  0.10556997  0.55220752     0.11500
H937        H  0.30108823  0.10890103  0.68659512     0.11600
H938        H  0.31297885  0.11830240  0.73051540     0.11600
H939        H  0.36575604  0.17521935  0.70386395     0.11700
H940        H  0.35369146  0.16570144  0.66032646     0.10500
C941        C  0.21497704  0.93705736  0.36072925    -0.03300
C942        C  0.23734066  0.95031167  0.35475179    -0.09000
C943        C  0.24610091  0.96994659  0.37030671    -0.16700
C944        C  0.23269831  0.97654775  0.39205964     0.25400
C945        C  0.21035057  0.96362294  0.39804959    -0.18400
C946        C  0.20152165  0.94404620  0.38251837    -0.07300
C947        C  0.24179186  0.99659617  0.40822513    -0.13700
C948        C  0.24907537  0.01367045  0.42159172    -0.13500
C949        C  0.25743445  0.03479671  0.43676357     0.25300
C950        C  0.24793342  0.05918806  0.43186208    -0.18900
C951        C  0.25680195  0.08001898  0.44562007    -0.07300
C952        C  0.27532223  0.07675507  0.46451600    -0.03400
C953        C  0.28427143  0.05209503  0.46985606    -0.08700
C954        C  0.27542618  0.03123528  0.45596954    -0.16400
H955        H  0.24817698  0.94539913  0.33816719     0.11800
H956        H  0.26339251  0.97987411  0.36544380     0.11100
H957        H  0.19979670  0.96858768  0.41482162     0.11000
H958        H  0.18432387  0.93418291  0.38777147     0.11500
H959        H  0.23394601  0.06216947  0.41713302     0.11600
H960        H  0.24941964  0.09878859  0.44128533     0.11600
H961        H  0.29871978  0.04910815  0.48412308     0.11700
H962        H  0.28293353  0.01242564  0.45990822     0.10500
C963        C  0.51242422  0.28831019  0.12260212    -0.03300
C964        C  0.51928955  0.28303941  0.14778819    -0.09000
C965        C  0.50274807  0.28884252  0.16755891    -0.16700
C966        C  0.47919724  0.30003912  0.16242577     0.25400
C967        C  0.47240763  0.30567573  0.13748139    -0.18400
C968        C  0.48886807  0.29992217  0.11774144    -0.07300
C969        C  0.46165626  0.30530621  0.18253176    -0.13700
C970        C  0.44606341  0.30953091  0.19858057    -0.13500
C971        C  0.42669448  0.31424891  0.21709302     0.25300
C972        C  0.40268489  0.32259227  0.20940815    -0.18900
C973        C  0.38367345  0.32666225  0.22725181    -0.07300
C974        C  0.38840219  0.32246075  0.25310497    -0.03400
C975        C  0.41266545  0.31421687  0.26063979    -0.08700
C976        C  0.43163390  0.31013012  0.24275469    -0.16400
H977        H  0.53715420  0.27389942  0.15214305     0.11800
H978        H  0.50820170  0.28433148  0.18679577     0.11100
H979        H  0.45427907  0.31440225  0.13325283     0.11000
H980        H  0.48317257  0.30462950  0.09863609     0.11500
H981        H  0.39858874  0.32574729  0.18959869     0.11600
H982        H  0.36513442  0.33263594  0.22075103     0.11600
H983        H  0.41705370  0.31113279  0.28037972     0.11700
H984        H  0.45014882  0.30370276  0.24895441     0.10500
C985        C  0.59927960  0.28365065  0.08408653    -0.03300
C986        C  0.61675507  0.26600966  0.07433941    -0.09000
C987        C  0.64289339  0.26994982  0.07716296    -0.16700
C988        C  0.65199538  0.29157263  0.08969903     0.25400
C989        C  0.63476467  0.30936973  0.09914211    -0.18400
C990        C  0.60868653  0.30548331  0.09634005    -0.07300
C991        C  0.67890685  0.29562235  0.09310764    -0.13700
C992        C  0.70109649  0.30023777  0.09665172    -0.13500
C993        C  0.72709630  0.30747672  0.10156885     0.25300
C994        C  0.73224972  0.33013618  0.11441957    -0.18900
C995        C  0.75725533  0.33766157  0.11895364    -0.07300
C996        C  0.77769097  0.32268405  0.11063047    -0.03400
C997        C  0.77237565  0.29980773  0.09786344    -0.08700
C998        C  0.74725319  0.29226271  0.09340326    -0.16400
H999        H  0.61023109  0.24890298  0.06505306     0.11800
H1000       H  0.65599697  0.25599419  0.06974892     0.11100
H1001       H  0.64147856  0.32622799  0.10874551     0.11000
H1002       H  0.59585326  0.31970647  0.10370071     0.11500
H1003       H  0.71688489  0.34210840  0.12086766     0.11600
H1004       H  0.76055037  0.35537331  0.12884763     0.11600
H1005       H  0.78760288  0.28775280  0.09132798     0.11700
H1006       H  0.74356484  0.27463300  0.08348779     0.10500
C1007       C  0.52194889  0.25370487  0.03556860    -0.03300
C1008       C  0.52762221  0.26335145  0.01143475    -0.09000
C1009       C  0.51367040  0.25542027  0.99026253    -0.16700
C1010       C  0.49401248  0.23765507  0.99293732     0.25400
C1011       C  0.48896485  0.22727145  0.01674348    -0.18400
C1012       C  0.50280786  0.23517835  0.03784905    -0.07300
C1013       C  0.47842982  0.23050094  0.97159979    -0.13700
C1014       C  0.46462537  0.22400514  0.95451433    -0.13500
C1015       C  0.44809997  0.21535999  0.93446539     0.25300
C1016       C  0.42789790  0.23051178  0.92601347    -0.18900
C1017       C  0.41216574  0.22209787  0.90633563    -0.07300
C1018       C  0.41642668  0.19836339  0.89482377    -0.03400
C1019       C  0.43657517  0.18316605  0.90373819    -0.08700
C1020       C  0.45223378  0.19160702  0.92335468    -0.16400
H1021       H  0.54210662  0.27775917  0.00910705     0.11800
H1022       H  0.51783295  0.26356673  0.97193043     0.11100
H1023       H  0.47396874  0.21340123  0.01909286     0.11000
H1024       H  0.49821853  0.22712763  0.05612474     0.11500
H1025       H  0.42441185  0.24890588  0.93450242     0.11600
H1026       H  0.39689171  0.23430178  0.89994295     0.11600
H1027       H  0.44047343  0.16481571  0.89536396     0.11700
H1028       H  0.46771252  0.17963585  0.92974413     0.10500
loop_ 
_geom_bond_atom_site_label_1 
_geom_bond_atom_site_label_2 
_geom_bond_distance 
_geom_bond_site_symmetry_2 
_ccdc_geom_bond_type 
C1            C2   1.410       .  A
C1            C6   1.413       .  A
C1          C985   1.495       .  S
C2            C3   1.405       .  A
C2            H7   1.083       .  S
C3            C4   1.402       .  A
C3          C963   1.489       .  S
C4            C5   1.404       .  A
C4            H8   1.083       .  S
C5            C6   1.409       .  A
C5         C1007   1.490       .  S
C6            H9   1.083       .  S
C10          C11   1.409       .  A
C10          C15   1.409       .  A
C10         C919   1.489       .  S
C11          C12   1.406       .  A
C11          H16   1.083       .  S
C12          C13   1.402       .  A
C12         C952   1.483       .  S
C13          C14   1.402       .  A
C13          H17   1.083       .  S
C14          C15   1.404       .  A
C14         C908   1.486       .  S
C15          H18   1.084       .  S
C19          C20   1.411       .  A
C19          C24   1.410       .  A
C19         C853   1.492       .  S
C20          C21   1.407       .  A
C20          H25   1.083       .  S
C21          C22   1.402       .  A
C21         C886   1.485       .  S
C22          C23   1.402       .  A
C22          H26   1.083       .  S
C23          C24   1.405       .  A
C23         C831   1.486       .  S
C24          H27   1.083       .  S
C28          C29   1.407       .  A
C28          C33   1.405       .  A
C28         C842   1.488       .  S
C29          C30   1.407       .  A
C29          H34   1.083       .  S
C30          C31   1.406       .  A
C30         C974   1.490       .  S
C31          C32   1.405       .  A
C31          H35   1.083       .  S
C32          C33   1.404       .  A
C32         C897   1.485       .  S
C33          H36   1.083       .  S
O37          C53   1.276       .  A
O37         Zn43   2.022       .  S
C38         C820   1.489       .  S
C38          O54   1.276       .  A
C38          O51   1.277       .  A
O39          C52   1.278       .  A
O39         Cd46   2.085       .  S
O40          C58   1.279       .  A
O40         Cd49   2.092       .  S
O41          C55   1.279       .  A
O41         Cd45   2.092       .  S
O42          C53   1.278       .  A
O42         Cd45   2.086       .  S
Zn43         O54   2.025       .  S
Zn43         O56   2.018       .  S
Zn43         O48   1.932       .  S
O44          C55   1.276       .  A
O44         Cd49   2.063       .  S
Cd45         O47   2.069       .  S
Cd45         O48   1.998       .  S
Cd46         O50   2.098       .  S
Cd46         O59   2.077       .  S
Cd46         O48   2.000       .  S
O47          C57   1.276       .  A
O48         Cd49   1.996       .  S
Cd49         O51   2.086       .  S
O50          C57   1.280       .  A
C52         C765   1.486       .  S
C52          O56   1.276       .  A
C53         C787   1.488       .  S
C55         C721   1.486       .  S
C57         C710   1.490       .  S
C58         C743   1.489       .  S
C58          O59   1.277       .  A
C60          C61   1.409       .  A
C60          C65   1.410       .  A
C60         C655   1.491       .  S
C61          C62   1.405   1_554  A
C61          H66   1.083       .  S
C62          C63   1.403       .  A
C62         C677   1.485       .  S
C63          C64   1.403       .  A
C63          H67   1.084       .  S
C64          C65   1.406   1_556  A
C64         C633   1.489       .  S
C65          H68   1.083       .  S
C69          C70   1.412       .  A
C69          C74   1.410       .  A
C69         C611   1.495       .  S
C70          C71   1.410       .  A
C70          H75   1.083       .  S
C71          C72   1.405       .  A
C71         C809   1.493       .  S
C72          C73   1.403       .  A
C72          H76   1.083       .  S
C73          C74   1.405       .  A
C73         C600   1.490       .  S
C74          H77   1.083       .  S
C78          C79   1.409   1_655  A
C78          C83   1.411       .  A
C78         C699   1.492       .  S
C79          C80   1.405       .  A
C79          H84   1.083   1_455  S
C80          C81   1.403       .  A
C80         C545   1.489       .  S
C81          C82   1.404       .  A
C81          H85   1.083       .  S
C82          C83   1.408   1_455  A
C82         C578   1.490       .  S
C83          H86   1.083       .  S
C87          C88   1.408       .  A
C87          C92   1.406       .  A
C87         C644   1.489       .  S
C88          C89   1.408       .  A
C88          H93   1.083       .  S
C89          C90   1.405       .  A
C89         C589   1.491       .  S
C90          C91   1.405       .  A
C90          H94   1.083       .  S
C91          C92   1.404       .  A
C91         C556   1.487       .  S
C92          H95   1.083       .  S
O96         C112   1.275       .  A
O96        Zn102   2.019       .  S
C97        C1018   1.488       .  S
C97         O113   1.275       .  A
C97         O110   1.279       .  A
O98         C111   1.277       .  A
O98        Cd105   2.085       .  S
O99         C117   1.280       .  A
O99        Cd108   2.100       .  S
O100        C114   1.279       .  A
O100       Cd104   2.092       .  S
O101        C112   1.278       .  A
O101       Cd104   2.086       .  S
Zn102       O113   2.014       .  S
Zn102       O115   2.010       .  S
Zn102       O107   1.928       .  S
O103        C114   1.278       .  A
O103       Cd108   2.078       .  S
Cd104       O106   2.066       .  S
Cd104       O107   1.996       .  S
Cd105       O109   2.090       .  S
Cd105       O118   2.069       .  S
Cd105       O107   2.000       .  S
O106        C116   1.276       .  A
O107       Cd108   2.000       .  S
Cd108       O110   2.094       .  S
O109        C116   1.279       .  A
C111        C688   1.485       .  S
C111        O115   1.274       .  A
C112        C534   1.487       .  S
C114        C622   1.490       .  S
C116        C930   1.485       .  S
C117        C512   1.490       .  S
C117        O118   1.276       .  A
C119        C120   1.412       .  A
C119        C124   1.410       .  A
C119        C501   1.496       .  S
C120        C121   1.409       .  A
C120        H125   1.083       .  S
C121        C122   1.405       .  A
C121        C479   1.491       .  S
C122        C123   1.403       .  A
C122        H126   1.084   1_455  S
C123        C124   1.405       .  A
C123        C468   1.490       .  S
C124        H127   1.083       .  S
C128        C129   1.408       .  A
C128        C133   1.410       .  A
C128        C435   1.491       .  S
C129        C130   1.404       .  A
C129        H134   1.083       .  S
C130        C131   1.402       .  A
C130        C424   1.486       .  S
C131        C132   1.405       .  A
C131        H135   1.083       .  S
C132        C133   1.409       .  A
C132        C798   1.491       .  S
C133        H136   1.083       .  S
C137        C138   1.408       .  A
C137        C142   1.409       .  A
C137        C754   1.491       .  S
C138        C139   1.406   1_565  A
C138        H143   1.083       .  S
C139        C140   1.405       .  A
C139        C402   1.491       .  S
C140        C141   1.406       .  A
C140        H144   1.083       .  S
C141        C142   1.407   1_545  A
C141        C523   1.489       .  S
C142        H145   1.083       .  S
C146        C147   1.404       .  A
C146        C151   1.405       .  A
C146        C413   1.488       .  S
C147        C148   1.405       .  A
C147        H152   1.083       .  S
C148        C149   1.408       .  A
C148        C391   1.491       .  S
C149        C150   1.409       .  A
C149        H153   1.083       .  S
C150        C151   1.408       .  A
C150        C457   1.492       .  S
C151        H154   1.083       .  S
O155        C171   1.275       .  A
O155       Zn161   2.018       .  S
C156        C490   1.489       .  S
C156        O172   1.275       .  A
C156        O169   1.279       .  A
O157        C170   1.278       .  A
O157       Cd164   2.088       .  S
O158        C176   1.280       .  A
O158       Cd167   2.097       .  S
O159        C173   1.279       .  A
O159       Cd163   2.095       .  S
O160        C171   1.278       .  A
O160       Cd163   2.088       .  S
Zn161       O172   2.015       .  S
Zn161       O174   2.011       .  S
Zn161       O166   1.927       .  S
O162        C173   1.276       .  A
O162       Cd167   2.066       .  S
Cd163       O165   2.074       .  S
Cd163       O166   1.998       .  S
Cd164       O168   2.093       .  S
Cd164       O177   2.070       .  S
Cd164       O166   1.999       .  S
O165        C175   1.277       .  A
O166       Cd167   1.999       .  S
Cd167       O169   2.095       .  S
O168        C175   1.279       .  A
C170        C369   1.486       .  S
C170        O174   1.275       .  A
C171        C875   1.487       .  S
C173        C358   1.488       .  S
C175        C446   1.489       .  S
C176        C996   1.490       .  S
C176        O177   1.276       .  A
C178        C179   1.409       .  A
C178        C183   1.411       .  A
C178        C347   1.494       .  S
C179        C180   1.405       .  A
C179        H184   1.083       .  S
C180        C181   1.403   1_545  A
C180        C303   1.489   1_545  S
C181        C182   1.405   1_565  A
C181        H185   1.083       .  S
C182        C183   1.409       .  A
C182        C336   1.493       .  S
C183        H186   1.083       .  S
C187        C188   1.410       .  A
C187        C192   1.409       .  A
C187        C281   1.489       .  S
C188        C189   1.407       .  A
C188        H193   1.083       .  S
C189        C190   1.403       .  A
C189        C776   1.486       .  S
C190        C191   1.403       .  A
C190        H194   1.084       .  S
C191        C192   1.405       .  A
C191        C270   1.487       .  S
C192        H195   1.083       .  S
C196        C197   1.408       .  A
C196        C201   1.409       .  A
C196        C732   1.489       .  S
C197        C198   1.405       .  A
C197        H202   1.083       .  S
C198        C199   1.404       .  A
C198        C237   1.490       .  S
C199        C200   1.405       .  A
C199        H203   1.082       .  S
C200        C201   1.407       .  A
C200        C380   1.489       .  S
C201        H204   1.083       .  S
C205        C206   1.408       .  A
C205        C210   1.406       .  A
C205        C248   1.491       .  S
C206        C207   1.407       .  A
C206        H211   1.083       .  S
C207        C208   1.405       .  A
C207        C259   1.487       .  S
C208        C209   1.405       .  A
C208        H212   1.083       .  S
C209        C210   1.405       .  A
C209        C314   1.488       .  S
C210        H213   1.083       .  S
O214        C230   1.275       .  A
O214       Zn220   2.016       .  S
C215        C941   1.484       .  S
C215        O231   1.275       .  A
C215        O228   1.277       .  A
O216        C229   1.278       .  A
O216       Cd223   2.088       .  S
O217        C235   1.278       .  A
O217       Cd226   2.089       .  S
O218        C232   1.280       .  A
O218       Cd222   2.100       .  S
O219        C230   1.278       .  A
O219       Cd222   2.087       .  S
Zn220       O231   2.014       .  S
Zn220       O233   2.018       .  S
Zn220       O225   1.927       .  S
O221        C232   1.276       .  A
O221       Cd226   2.069       .  S
Cd222       O224   2.073       .  S
Cd222       O225   1.997       .  S
Cd223       O227   2.089       .  S
Cd223       O236   2.065       .  S
Cd223       O225   1.994       .  S
O224        C234   1.277       .  A
O225       Cd226   1.995       .  S
Cd226       O228   2.080       .  S
O227        C234   1.279       .  A
C229        C325   1.488       .  S
C229        O233   1.275       .  A
C230        C567   1.487       .  S
C232        C292   1.490       .  S
C234        C864   1.487       .  S
C235        C666   1.486       .  S
C235        O236   1.276       .  A
C237        C238   1.409       .  A
C237        C242   1.408   1_556  A
C238        C239   1.402       .  A
C238        H251   1.082       .  S
C239        C240   1.401   1_556  A
C239        H252   1.084       .  S
C240        C241   1.399       .  A
C240        C243   1.442       .  S
C241        C242   1.397       .  A
C241        H253   1.083       .  S
C242        H254   1.083       .  S
C243        C244   1.208       .  T
C244        C245   1.443       .  S
C245        C246   1.399       .  A
C245        C250   1.400       .  A
C246        C247   1.398       .  A
C246        H255   1.085       .  S
C247        C248   1.409       .  A
C247        H256   1.082       .  S
C248        C249   1.409       .  A
C249        C250   1.401       .  A
C249        H257   1.083       .  S
C250        H258   1.082       .  S
C259        C260   1.407       .  A
C259        C264   1.408       .  A
C260        C261   1.400       .  A
C260        H273   1.083       .  S
C261        C262   1.401       .  A
C261        H274   1.083       .  S
C262        C263   1.400       .  A
C262        C265   1.443       .  S
C263        C264   1.400       .  A
C263        H275   1.084       .  S
C264        H276   1.083       .  S
C265        C266   1.208       .  T
C266        C267   1.443       .  S
C267        C268   1.401       .  A
C267        C272   1.399       .  A
C268        C269   1.401       .  A
C268        H277   1.083       .  S
C269        C270   1.407       .  A
C269        H278   1.083       .  S
C270        C271   1.407       .  A
C271        C272   1.397       .  A
C271        H279   1.083       .  S
C272        H280   1.084       .  S
C281        C282   1.408       .  A
C281        C286   1.407       .  A
C282        C283   1.402       .  A
C282        H295   1.081       .  S
C283        C284   1.401       .  A
C283        H296   1.085       .  S
C284        C285   1.401       .  A
C284        C287   1.447       .  S
C285        C286   1.401       .  A
C285        H297   1.081       .  S
C286        H298   1.085       .  S
C287        C288   1.210       .  T
C288        C289   1.447       .  S
C289        C290   1.402       .  A
C289        C294   1.399       .  A
C290        C291   1.404       .  A
C290        H299   1.084       .  S
C291        C292   1.408       .  A
C291        H300   1.082       .  S
C292        C293   1.410       .  A
C293        C294   1.399       .  A
C293        H301   1.084       .  S
C294        H302   1.083       .  S
C303        C304   1.408       .  A
C303        C308   1.408   1_565  A
C304        C305   1.397       .  A
C304        H317   1.083       .  S
C305        C306   1.399       .  A
C305        H318   1.083       .  S
C306        C307   1.401       .  A
C306        C309   1.442       .  S
C307        C308   1.401   1_565  A
C307        H319   1.084       .  S
C308        H320   1.083       .  S
C309        C310   1.207       .  T
C310        C311   1.442       .  S
C311        C312   1.400       .  A
C311        C316   1.399       .  A
C312        C313   1.400       .  A
C312        H321   1.083       .  S
C313        C314   1.408       .  A
C313        H322   1.083       .  S
C314        C315   1.408       .  A
C315        C316   1.398       .  A
C315        H323   1.083       .  S
C316        H324   1.084       .  S
C325        C326   1.408       .  A
C325        C330   1.409       .  A
C326        C327   1.402       .  A
C326        H339   1.083       .  S
C327        C328   1.402       .  A
C327        H340   1.083       .  S
C328        C329   1.399       .  A
C328        C331   1.445       .  S
C329        C330   1.399       .  A
C329        H341   1.084       .  S
C330        H342   1.083       .  S
C331        C332   1.209       .  T
C332        C333   1.445       .  S
C333        C334   1.402   1_455  A
C333        C338   1.398   1_455  A
C334        C335   1.403   1_565  A
C334        H343   1.084   1_665  S
C335        C336   1.409       .  A
C335        H344   1.082       .  S
C336        C337   1.409   1_545  A
C337        C338   1.397       .  A
C337        H345   1.083       .  S
C338        H346   1.084       .  S
C347        C348   1.409       .  A
C347        C352   1.410       .  A
C348        C349   1.401       .  A
C348        H361   1.082       .  S
C349        C350   1.400       .  A
C349        H362   1.083       .  S
C350        C351   1.400       .  A
C350        C353   1.446       .  S
C351        C352   1.401       .  A
C351        H363   1.084       .  S
C352        H364   1.083       .  S
C353        C354   1.210       .  T
C354        C355   1.446       .  S
C355        C356   1.402       .  A
C355        C360   1.399       .  A
C356        C357   1.404       .  A
C356        H365   1.084       .  S
C357        C358   1.408       .  A
C357        H366   1.083       .  S
C358        C359   1.409       .  A
C359        C360   1.398       .  A
C359        H367   1.084       .  S
C360        H368   1.083       .  S
C369        C370   1.409       .  A
C369        C374   1.408       .  A
C370        C371   1.398       .  A
C370        H383   1.083       .  S
C371        C372   1.399       .  A
C371        H384   1.084       .  S
C372        C373   1.401       .  A
C372        C375   1.443       .  S
C373        C374   1.401       .  A
C373        H385   1.084       .  S
C374        H386   1.083       .  S
C375        C376   1.208       .  T
C376        C377   1.443       .  S
C377        C378   1.398       .  A
C377        C382   1.402   1_554  A
C378        C379   1.397   1_554  A
C378        H387   1.083       .  S
C379        C380   1.408       .  A
C379        H388   1.083   1_556  S
C380        C381   1.408       .  A
C381        C382   1.402       .  A
C381        H389   1.083       .  S
C382        H390   1.083       .  S
C391        C392   1.408       .  A
C391        C396   1.408       .  A
C392        C393   1.403       .  A
C392        H405   1.083       .  S
C393        C394   1.402       .  A
C393        H406   1.083       .  S
C394        C395   1.399       .  A
C394        C397   1.444       .  S
C395        C396   1.398       .  A
C395        H407   1.084       .  S
C396        H408   1.083       .  S
C397        C398   1.209       .  T
C398        C399   1.444       .  S
C399        C400   1.400       .  A
C399        C404   1.401       .  A
C400        C401   1.399       .  A
C400        H409   1.083       .  S
C401        C402   1.408       .  A
C401        H410   1.083       .  S
C402        C403   1.409       .  A
C403        C404   1.401       .  A
C403        H411   1.083       .  S
C404        H412   1.084       .  S
C413        C414   1.408       .  A
C413        C418   1.408       .  A
C414        C415   1.402       .  A
C414        H427   1.083       .  S
C415        C416   1.401       .  A
C415        H428   1.083       .  S
C416        C417   1.399       .  A
C416        C419   1.442       .  S
C417        C418   1.397       .  A
C417        H429   1.083       .  S
C418        H430   1.083       .  S
C419        C420   1.208       .  T
C420        C421   1.442       .  S
C421        C422   1.400       .  A
C421        C426   1.401       .  A
C422        C423   1.398       .  A
C422        H431   1.083       .  S
C423        C424   1.407       .  A
C423        H432   1.083       .  S
C424        C425   1.407       .  A
C425        C426   1.400       .  A
C425        H433   1.083       .  S
C426        H434   1.083       .  S
C435        C436   1.408       .  A
C435        C440   1.408       .  A
C436        C437   1.399       .  A
C436        H449   1.083       .  S
C437        C438   1.400       .  A
C437        H450   1.085       .  S
C438        C439   1.401       .  A
C438        C441   1.446       .  S
C439        C440   1.402       .  A
C439        H451   1.083       .  S
C440        H452   1.083       .  S
C441        C442   1.210       .  T
C442        C443   1.446       .  S
C443        C444   1.402       .  A
C443        C448   1.399       .  A
C444        C445   1.403       .  A
C444        H453   1.084       .  S
C445        C446   1.409       .  A
C445        H454   1.082       .  S
C446        C447   1.409       .  A
C447        C448   1.399       .  A
C447        H455   1.084       .  S
C448        H456   1.083       .  S
C457        C458   1.409       .  A
C457        C462   1.408       .  A
C458        C459   1.399       .  A
C458        H471   1.083       .  S
C459        C460   1.400       .  A
C459        H472   1.083       .  S
C460        C461   1.401       .  A
C460        C463   1.445       .  S
C461        C462   1.402       .  A
C461        H473   1.083       .  S
C462        H474   1.083       .  S
C463        C464   1.209       .  T
C464        C465   1.445       .  S
C465        C466   1.401   1_655  A
C465        C470   1.400       .  A
C466        C467   1.401       .  A
C466        H475   1.083       .  S
C467        C468   1.408       .  A
C467        H476   1.083       .  S
C468        C469   1.408   1_455  A
C469        C470   1.399       .  A
C469        H477   1.083       .  S
C470        H478   1.083       .  S
C479        C480   1.408       .  A
C479        C484   1.407       .  A
C480        C481   1.399   1_455  A
C480        H493   1.083       .  S
C481        C482   1.399       .  A
C481        H494   1.084       .  S
C482        C483   1.403   1_655  A
C482        C485   1.447       .  S
C483        C484   1.404       .  A
C483        H495   1.083       .  S
C484        H496   1.083       .  S
C485        C486   1.210       .  T
C486        C487   1.447   1_556  S
C487        C488   1.402       .  A
C487        C492   1.399       .  A
C488        C489   1.403       .  A
C488        H497   1.084       .  S
C489        C490   1.408       .  A
C489        H498   1.083       .  S
C490        C491   1.410       .  A
C491        C492   1.399       .  A
C491        H499   1.083       .  S
C492        H500   1.084       .  S
C501        C502   1.410       .  A
C501        C506   1.409       .  A
C502        C503   1.400       .  A
C502        H515   1.083       .  S
C503        C504   1.400       .  A
C503        H516   1.084       .  S
C504        C505   1.401       .  A
C504        C507   1.448       .  S
C505        C506   1.403       .  A
C505        H517   1.083       .  S
C506        H518   1.083       .  S
C507        C508   1.211       .  T
C508        C509   1.448       .  S
C509        C510   1.402       .  A
C509        C514   1.399       .  A
C510        C511   1.404       .  A
C510        H519   1.084       .  S
C511        C512   1.408       .  A
C511        H520   1.082       .  S
C512        C513   1.410       .  A
C513        C514   1.399       .  A
C513        H521   1.084       .  S
C514        H522   1.083       .  S
C523        C524   1.408       .  A
C523        C528   1.407       .  A
C524        C525   1.402       .  A
C524        H537   1.083   1_545  S
C525        C526   1.402       .  A
C525        H538   1.084       .  S
C526        C527   1.400       .  A
C526        C529   1.445       .  S
C527        C528   1.399       .  A
C527        H539   1.083       .  S
C528        H540   1.083       .  S
C529        C530   1.209       .  T
C530        C531   1.445       .  S
C531        C532   1.400       .  A
C531        C536   1.400       .  A
C532        C533   1.400       .  A
C532        H541   1.084       .  S
C533        C534   1.408       .  A
C533        H542   1.082       .  S
C534        C535   1.409       .  A
C535        C536   1.401       .  A
C535        H543   1.083       .  S
C536        H544   1.083       .  S
C545        C546   1.408       .  A
C545        C550   1.408       .  A
C546        C547   1.401       .  A
C546        H559   1.083       .  S
C547        C548   1.401       .  A
C547        H560   1.083       .  S
C548        C549   1.399       .  A
C548        C551   1.441       .  S
C549        C550   1.396       .  A
C549        H561   1.084       .  S
C550        H562   1.083       .  S
C551        C552   1.207       .  T
C552        C553   1.441       .  S
C553        C554   1.399       .  A
C553        C558   1.400       .  A
C554        C555   1.397       .  A
C554        H563   1.083       .  S
C555        C556   1.407       .  A
C555        H564   1.083       .  S
C556        C557   1.408       .  A
C557        C558   1.400       .  A
C557        H565   1.082       .  S
C558        H566   1.084       .  S
C567        C568   1.408       .  A
C567        C572   1.409       .  A
C568        C569   1.401       .  A
C568        H581   1.083       .  S
C569        C570   1.401       .  A
C569        H582   1.083       .  S
C570        C571   1.400       .  A
C570        C573   1.445       .  S
C571        C572   1.400       .  A
C571        H583   1.084       .  S
C572        H584   1.082       .  S
C573        C574   1.209       .  T
C574        C575   1.445       .  S
C575        C576   1.402       .  A
C575        C580   1.399       .  A
C576        C577   1.403       .  A
C576        H585   1.083       .  S
C577        C578   1.407       .  A
C577        H586   1.083       .  S
C578        C579   1.409       .  A
C579        C580   1.398       .  A
C579        H587   1.083       .  S
C580        H588   1.084       .  S
C589        C590   1.409       .  A
C589        C594   1.408       .  A
C590        C591   1.400       .  A
C590        H603   1.082       .  S
C591        C592   1.400       .  A
C591        H604   1.083       .  S
C592        C593   1.400       .  A
C592        C595   1.444       .  S
C593        C594   1.399       .  A
C593        H605   1.084       .  S
C594        H606   1.083       .  S
C595        C596   1.208       .  T
C596        C597   1.444       .  S
C597        C598   1.399       .  A
C597        C602   1.402       .  A
C598        C599   1.397       .  A
C598        H607   1.084       .  S
C599        C600   1.408       .  A
C599        H608   1.083       .  S
C600        C601   1.408       .  A
C601        C602   1.403       .  A
C601        H609   1.082       .  S
C602        H610   1.084       .  S
C611        C612   1.409       .  A
C611        C616   1.409       .  A
C612        C613   1.404       .  A
C612        H625   1.082       .  S
C613        C614   1.402       .  A
C613        H626   1.083       .  S
C614        C615   1.400       .  A
C614        C617   1.449       .  S
C615        C616   1.400       .  A
C615        H627   1.083       .  S
C616        H628   1.083       .  S
C617        C618   1.211       .  T
C618        C619   1.449       .  S
C619        C620   1.399       .  A
C619        C624   1.403       .  A
C620        C621   1.399       .  A
C620        H629   1.083       .  S
C621        C622   1.409       .  A
C621        H630   1.083       .  S
C622        C623   1.409       .  A
C623        C624   1.405       .  A
C623        H631   1.082       .  S
C624        H632   1.084       .  S
C633        C634   1.408       .  A
C633        C638   1.408       .  A
C634        C635   1.397       .  A
C634        H647   1.083       .  S
C635        C636   1.399       .  A
C635        H648   1.084       .  S
C636        C637   1.401       .  A
C636        C639   1.443       .  S
C637        C638   1.401       .  A
C637        H649   1.083       .  S
C638        H650   1.083       .  S
C639        C640   1.208       .  T
C640        C641   1.443       .  S
C641        C642   1.400       .  A
C641        C646   1.400       .  A
C642        C643   1.400       .  A
C642        H651   1.083       .  S
C643        C644   1.408       .  A
C643        H652   1.083       .  S
C644        C645   1.408       .  A
C645        C646   1.399       .  A
C645        H653   1.083       .  S
C646        H654   1.083       .  S
C655        C656   1.408       .  A
C655        C660   1.409       .  A
C656        C657   1.399       .  A
C656        H669   1.083       .  S
C657        C658   1.400       .  A
C657        H670   1.084       .  S
C658        C659   1.400       .  A
C658        C661   1.443       .  S
C659        C660   1.400       .  A
C659        H671   1.084       .  S
C660        H672   1.083       .  S
C661        C662   1.208       .  T
C662        C663   1.443       .  S
C663        C664   1.402       .  A
C663        C668   1.398       .  A
C664        C665   1.403       .  A
C664        H673   1.084       .  S
C665        C666   1.408       .  A
C665        H674   1.082       .  S
C666        C667   1.408       .  A
C667        C668   1.396       .  A
C667        H675   1.084       .  S
C668        H676   1.083       .  S
C677        C678   1.407       .  A
C677        C682   1.407       .  A
C678        C679   1.401       .  A
C678        H691   1.083       .  S
C679        C680   1.402       .  A
C679        H692   1.083   1_565  S
C680        C681   1.398       .  A
C680        C683   1.441   1_565  S
C681        C682   1.396       .  A
C681        H693   1.083       .  S
C682        H694   1.083       .  S
C683        C684   1.207       .  T
C684        C685   1.441       .  S
C685        C686   1.398       .  A
C685        C690   1.401       .  A
C686        C687   1.397       .  A
C686        H695   1.083       .  S
C687        C688   1.408       .  A
C687        H696   1.084       .  S
C688        C689   1.408       .  A
C689        C690   1.401       .  A
C689        H697   1.083       .  S
C690        H698   1.084       .  S
C699        C700   1.408       .  A
C699        C704   1.408       .  A
C700        C701   1.400       .  A
C700        H713   1.083       .  S
C701        C702   1.401       .  A
C701        H714   1.084       .  S
C702        C703   1.401       .  A
C702        C705   1.447       .  S
C703        C704   1.403       .  A
C703        H715   1.084       .  S
C704        H716   1.082       .  S
C705        C706   1.211       .  T
C706        C707   1.447       .  S
C707        C708   1.403       .  A
C707        C712   1.399       .  A
C708        C709   1.405       .  A
C708        H717   1.084       .  S
C709        C710   1.409       .  A
C709        H718   1.082       .  S
C710        C711   1.409       .  A
C711        C712   1.398       .  A
C711        H719   1.083       .  S
C712        H720   1.083       .  S
C721        C722   1.408       .  A
C721        C726   1.409       .  A
C722        C723   1.403       .  A
C722        H735   1.082       .  S
C723        C724   1.402       .  A
C723        H736   1.084       .  S
C724        C725   1.398       .  A
C724        C727   1.444       .  S
C725        C726   1.397       .  A
C725        H737   1.083       .  S
C726        H738   1.083       .  S
C727        C728   1.208       .  T
C728        C729   1.444       .  S
C729        C730   1.400       .  A
C729        C734   1.401       .  A
C730        C731   1.399       .  A
C730        H739   1.084       .  S
C731        C732   1.408       .  A
C731        H740   1.083       .  S
C732        C733   1.408       .  A
C733        C734   1.401       .  A
C733        H741   1.083       .  S
C734        H742   1.083       .  S
C743        C744   1.409       .  A
C743        C748   1.409       .  A
C744        C745   1.399       .  A
C744        H757   1.083       .  S
C745        C746   1.399       .  A
C745        H758   1.083       .  S
C746        C747   1.402       .  A
C746        C749   1.446       .  S
C747        C748   1.403       .  A
C747        H759   1.084       .  S
C748        H760   1.082       .  S
C749        C750   1.210       .  T
C750        C751   1.446       .  S
C751        C752   1.400       .  A
C751        C756   1.401       .  A
C752        C753   1.400       .  A
C752        H761   1.084       .  S
C753        C754   1.408       .  A
C753        H762   1.083       .  S
C754        C755   1.408       .  A
C755        C756   1.402       .  A
C755        H763   1.083       .  S
C756        H764   1.083       .  S
C765        C766   1.408       .  A
C765        C770   1.409       .  A
C766        C767   1.401       .  A
C766        H779   1.083       .  S
C767        C768   1.401       .  A
C767        H780   1.084       .  S
C768        C769   1.399       .  A
C768        C771   1.444       .  S
C769        C770   1.399       .  A
C769        H781   1.083       .  S
C770        H782   1.083       .  S
C771        C772   1.208       .  T
C772        C773   1.444       .  S
C773        C774   1.402       .  A
C773        C778   1.399       .  A
C774        C775   1.402       .  A
C774        H783   1.084       .  S
C775        C776   1.406       .  A
C775        H784   1.083       .  S
C776        C777   1.407       .  A
C777        C778   1.398       .  A
C777        H785   1.083       .  S
C778        H786   1.083       .  S
C787        C788   1.409       .  A
C787        C792   1.409       .  A
C788        C789   1.401       .  A
C788        H801   1.082       .  S
C789        C790   1.401       .  A
C789        H802   1.085       .  S
C790        C791   1.400       .  A
C790        C793   1.445       .  S
C791        C792   1.400       .  A
C791        H803   1.082       .  S
C792        H804   1.084       .  S
C793        C794   1.209       .  T
C794        C795   1.445       .  S
C795        C796   1.399       .  A
C795        C800   1.402       .  A
C796        C797   1.398       .  A
C796        H805   1.084       .  S
C797        C798   1.409       .  A
C797        H806   1.083       .  S
C798        C799   1.408       .  A
C799        C800   1.403       .  A
C799        H807   1.083       .  S
C800        H808   1.083       .  S
C809        C810   1.409       .  A
C809        C814   1.408       .  A
C810        C811   1.398       .  A
C810        H823   1.083       .  S
C811        C812   1.398       .  A
C811        H824   1.083       .  S
C812        C813   1.403       .  A
C812        C815   1.447       .  S
C813        C814   1.405       .  A
C813        H825   1.083       .  S
C814        H826   1.083       .  S
C815        C816   1.210       .  T
C816        C817   1.447       .  S
C817        C818   1.400       .  A
C817        C822   1.401       .  A
C818        C819   1.401       .  A
C818        H827   1.083       .  S
C819        C820   1.409       .  A
C819        H828   1.084       .  S
C820        C821   1.409       .  A
C821        C822   1.402       .  A
C821        H829   1.082       .  S
C822        H830   1.084       .  S
C831        C832   1.407       .  A
C831        C836   1.407       .  A
C832        C833   1.401       .  A
C832        H845   1.083       .  S
C833        C834   1.401       .  A
C833        H846   1.084       .  S
C834        C835   1.399       .  A
C834        C837   1.441       .  S
C835        C836   1.397       .  A
C835        H847   1.084       .  S
C836        H848   1.083       .  S
C837        C838   1.207       .  T
C838        C839   1.441       .  S
C839        C840   1.399       .  A
C839        C844   1.400       .  A
C840        C841   1.398       .  A
C840        H849   1.084       .  S
C841        C842   1.408       .  A
C841        H850   1.083       .  S
C842        C843   1.408       .  A
C843        C844   1.401       .  A
C843        H851   1.083       .  S
C844        H852   1.083       .  S
C853        C854   1.408       .  A
C853        C858   1.409       .  A
C854        C855   1.400       .  A
C854        H867   1.083       .  S
C855        C856   1.400       .  A
C855        H868   1.083       .  S
C856        C857   1.401       .  A
C856        C859   1.446       .  S
C857        C858   1.402       .  A
C857        H869   1.084       .  S
C858        H870   1.082       .  S
C859        C860   1.210       .  T
C860        C861   1.446       .  S
C861        C862   1.402       .  A
C861        C866   1.399       .  A
C862        C863   1.403       .  A
C862        H871   1.084       .  S
C863        C864   1.408       .  A
C863        H872   1.083       .  S
C864        C865   1.409       .  A
C865        C866   1.399       .  A
C865        H873   1.084       .  S
C866        H874   1.084       .  S
C875        C876   1.409       .  A
C875        C880   1.408       .  A
C876        C877   1.400       .  A
C876        H889   1.083       .  S
C877        C878   1.400       .  A
C877        H890   1.084       .  S
C878        C879   1.401       .  A
C878        C881   1.444   1_655  S
C879        C880   1.401       .  A
C879        H891   1.083       .  S
C880        H892   1.083       .  S
C881        C882   1.209       .  T
C882        C883   1.444       .  S
C883        C884   1.402       .  A
C883        C888   1.399       .  A
C884        C885   1.402       .  A
C884        H893   1.084       .  S
C885        C886   1.406       .  A
C885        H894   1.083       .  S
C886        C887   1.407       .  A
C887        C888   1.398       .  A
C887        H895   1.083       .  S
C888        H896   1.083       .  S
C897        C898   1.408       .  A
C897        C902   1.407       .  A
C898        C899   1.399       .  A
C898        H911   1.083       .  S
C899        C900   1.400       .  A
C899        H912   1.084       .  S
C900        C901   1.400       .  A
C900        C903   1.440       .  S
C901        C902   1.398       .  A
C901        H913   1.083       .  S
C902        H914   1.083       .  S
C903        C904   1.206       .  T
C904        C905   1.440       .  S
C905        C906   1.398       .  A
C905        C910   1.401       .  A
C906        C907   1.396       .  A
C906        H915   1.084       .  S
C907        C908   1.408       .  A
C907        H916   1.083       .  S
C908        C909   1.407       .  A
C909        C910   1.400       .  A
C909        H917   1.083       .  S
C910        H918   1.083       .  S
C919        C920   1.407       .  A
C919        C924   1.408       .  A
C920        C921   1.398       .  A
C920        H933   1.084       .  S
C921        C922   1.400       .  A
C921        H934   1.082       .  S
C922        C923   1.401       .  A
C922        C925   1.443       .  S
C923        C924   1.401       .  A
C923        H935   1.084       .  S
C924        H936   1.082       .  S
C925        C926   1.208       .  T
C926        C927   1.443       .  S
C927        C928   1.401       .  A
C927        C932   1.399       .  A
C928        C929   1.403       .  A
C928        H937   1.084       .  S
C929        C930   1.408       .  A
C929        H938   1.083       .  S
C930        C931   1.409       .  A
C931        C932   1.397       .  A
C931        H939   1.083       .  S
C932        H940   1.084       .  S
C941        C942   1.408       .  A
C941        C946   1.409       .  A
C942        C943   1.400       .  A
C942        H955   1.083       .  S
C943        C944   1.400       .  A
C943        H956   1.083       .  S
C944        C945   1.399       .  A
C944        C947   1.441       .  S
C945        C946   1.398       .  A
C945        H957   1.084       .  S
C946        H958   1.083       .  S
C947        C948   1.207   1_565  T
C948        C949   1.441       .  S
C949        C950   1.399       .  A
C949        C954   1.401       .  A
C950        C951   1.397       .  A
C950        H959   1.083       .  S
C951        C952   1.407       .  A
C951        H960   1.083       .  S
C952        C953   1.406       .  A
C953        C954   1.401       .  A
C953        H961   1.083       .  S
C954        H962   1.084       .  S
C963        C964   1.408       .  A
C963        C968   1.408       .  A
C964        C965   1.402       .  A
C964        H977   1.083       .  S
C965        C966   1.401       .  A
C965        H978   1.083       .  S
C966        C967   1.399       .  A
C966        C969   1.443       .  S
C967        C968   1.397       .  A
C967        H979   1.084       .  S
C968        H980   1.083       .  S
C969        C970   1.208       .  T
C970        C971   1.443       .  S
C971        C972   1.400       .  A
C971        C976   1.399       .  A
C972        C973   1.400       .  A
C972        H981   1.083       .  S
C973        C974   1.408       .  A
C973        H982   1.083       .  S
C974        C975   1.409       .  A
C975        C976   1.400       .  A
C975        H983   1.082       .  S
C976        H984   1.084       .  S
C985        C986   1.409       .  A
C985        C990   1.409       .  A
C986        C987   1.404       .  A
C986        H999   1.081       .  S
C987        C988   1.402       .  A
C987       H1000   1.084       .  S
C988        C989   1.400       .  A
C988        C991   1.448       .  S
C989        C990   1.400       .  A
C989       H1001   1.082       .  S
C990       H1002   1.084       .  S
C991        C992   1.211       .  T
C992        C993   1.448       .  S
C993        C994   1.399       .  A
C993        C998   1.402       .  A
C994        C995   1.399       .  A
C994       H1003   1.084       .  S
C995        C996   1.409       .  A
C995       H1004   1.083       .  S
C996        C997   1.409       .  A
C997        C998   1.404       .  A
C997       H1005   1.083       .  S
C998       H1006   1.083       .  S
C1007      C1008   1.407       .  A
C1007      C1012   1.408       .  A
C1008      C1009   1.404   1_554  A
C1008      H1021   1.083       .  S
C1009      C1010   1.403       .  A
C1009      H1022   1.083       .  S
C1010      C1011   1.399   1_556  A
C1010      C1013   1.446       .  S
C1011      C1012   1.398       .  A
C1011      H1023   1.083       .  S
C1012      H1024   1.084       .  S
C1013      C1014   1.210       .  T
C1014      C1015   1.446       .  S
C1015      C1016   1.402       .  A
C1015      C1020   1.399       .  A
C1016      C1017   1.403       .  A
C1016      H1025   1.083       .  S
C1017      C1018   1.408       .  A
C1017      H1026   1.083       .  S
C1018      C1019   1.409       .  A
C1019      C1020   1.399       .  A
C1019      H1027   1.083       .  S
C1020      H1028   1.084       .  S
