geometry optimzed in LAMMPS
_audit_creation_date              2020-11-30 
_audit_creation_method            'lammps2cif' 
_symmetry_space_group_name_H-M    'P1' 
_symmetry_Int_Tables_number       1 
_symmetry_cell_setting            triclinic 
loop_ 
_symmetry_equiv_pos_as_xyz 
  x,y,z 
_cell_length_a                    45.15670985 
_cell_length_b                    45.417357224894786 
_cell_length_c                    72.32909937494624 
_cell_angle_alpha                 89.54805406583114 
_cell_angle_beta                  89.74484318699203 
_cell_angle_gamma                 90.34193735312107 
loop_ 
_atom_site_label 
_atom_site_type_symbol 
_atom_site_fract_x 
_atom_site_fract_y 
_atom_site_fract_z 
_atom_site_charge 
O1          O  0.20438011  0.06203012  0.01086080    -0.57300
C2          C  0.27010045  0.03062853  0.97042653     0.75400
O3          O  0.25690775  0.98498104  0.02166438    -0.58400
C4          C  0.18901176  0.04818358  0.02292877     0.75300
C5          C  0.18976952  0.98543675  0.97715603     0.77700
Cd6        Cd  0.23040636  0.01765038  0.99988755     1.37500
O7          O  0.25497990  0.05139325  0.97735351    -0.57300
O8          O  0.19383376  0.01294289  0.97586565    -0.56100
C9          C  0.27301418  0.00577428  0.02777224     0.77700
O10         O  0.20452133  0.97224395  0.98965552    -0.58400
O11         O  0.26736011  0.00530220  0.97767011    -0.56900
O12         O  0.19278671  0.02064332  0.02378958    -0.56900
O13         O  0.26998244  0.03096157  0.02044546    -0.56100
O14         O  0.60709659  0.96855494  0.05485846    -0.57300
C15         C  0.57516400  0.94434841  0.10793337     0.75400
O16         O  0.61870647  0.00618548  0.09922956    -0.58400
C17         C  0.60899112  0.99268257  0.04599917     0.75300
C18         C  0.51514171  0.99527859  0.07126379     0.77700
Cd19       Cd  0.57705763  0.99025135  0.08046404     1.37500
O20         O  0.59090224  0.94122870  0.09351730    -0.57300
O21         O  0.53016439  0.97290998  0.06691201    -0.56100
C22         C  0.60942155  0.03180594  0.10257269     0.77700
O23         O  0.52928256  0.01576677  0.07916308    -0.58400
O24         O  0.55984286  0.96746727  0.10894382    -0.56900
O25         O  0.59556268  0.01444567  0.05274026    -0.56900
O26         O  0.58506137  0.03890545  0.09521562    -0.56100
O27         O  0.31103143  0.94861474  0.08922006    -0.57300
C28         C  0.29290629  0.00195939  0.04349007     0.75400
O29         O  0.31655825  0.04360829  0.09689226    -0.58400
C30         C  0.32323579  0.95282233  0.10474370     0.75300
C31         C  0.38707011  0.00309192  0.06928808     0.77700
Cd32       Cd  0.32459465  0.99900167  0.07753777     1.37500
O33         O  0.29519261  0.97768449  0.05209921    -0.57300
O34         O  0.37182518  0.98019448  0.06612655    -0.56100
C35         C  0.28920636  0.03829971  0.09942806     0.77700
O36         O  0.37278549  0.02506168  0.07517366    -0.58400
O37         O  0.30723999  0.02369088  0.04977298    -0.56900
O38         O  0.33628184  0.97719088  0.10697713    -0.56900
O39         O  0.27904659  0.01614882  0.09111779    -0.56100
O40         O  0.64195522  0.97573667  0.02222207    -0.57300
C41         C  0.70451344  0.97302452  0.97730697     0.75400
O42         O  0.64069171  0.04237331  0.97604477    -0.58400
C43         C  0.62676005  0.99636458  0.02914915     0.75300
C44         C  0.70821059  0.04197376  0.01832960     0.77700
Cd45       Cd  0.66489520  0.00849741  0.99835971     1.37500
O46         O  0.68828703  0.96133948  0.98976058    -0.57300
O47         O  0.70458828  0.01449567  0.02025144    -0.56100
C48         C  0.62432315  0.02228624  0.96938701     0.77700
O49         O  0.69181639  0.05461886  0.00649301    -0.58400
O50         O  0.70157535  0.00044291  0.97474917    -0.56900
O51         O  0.62833088  0.02128837  0.02126864    -0.56900
O52         O  0.62610969  0.99690874  0.97662062    -0.56100
O53         O  0.29163764  0.05868744  0.94545963    -0.57300
C54         C  0.31857133  0.08132890  0.89172132     0.75400
O55         O  0.36538882  0.00777261  0.92327340    -0.58400
C56         C  0.28879905  0.03438858  0.95404685     0.75300
C57         C  0.28524899  0.99275840  0.89988985     0.77700
Cd58       Cd  0.31947573  0.03582280  0.91948618     1.37500
O59         O  0.30265694  0.08359334  0.90610112    -0.57300
O60         O  0.27415693  0.01519724  0.90732410    -0.56100
C61         C  0.38085068  0.02900067  0.92916944     0.77700
O62         O  0.31305567  0.99003822  0.90135093    -0.58400
O63         O  0.33522550  0.05913773  0.89077364    -0.56900
O64         O  0.30174371  0.01234078  0.94729372    -0.56900
O65         O  0.36733373  0.05314192  0.93124408    -0.56100
O66         O  0.60224526  0.05221893  0.94579432    -0.57300
C67         C  0.56999626  0.08119340  0.89471560     0.75400
O68         O  0.57365820  0.98685403  0.90284771    -0.58400
C69         C  0.60495005  0.02725219  0.95350727     0.75300
C70         C  0.50867836  0.02950444  0.93076233     0.77700
Cd71       Cd  0.57022374  0.03332467  0.92056303     1.37500
O72         O  0.58698759  0.08228511  0.90860418    -0.57300
O73         O  0.52473657  0.05103330  0.93559289    -0.56100
C74         C  0.59809010  0.99371569  0.89527202     0.77700
O75         O  0.52180971  0.00909445  0.92223566    -0.58400
O76         O  0.55265808  0.05936489  0.89370806    -0.56900
O77         O  0.59082578  0.00604107  0.94646602    -0.56900
O78         O  0.60947722  0.01792786  0.90013940    -0.56100
O79         O  0.59753375  0.47114602  0.94502289    -0.57300
C80         C  0.56733808  0.44942144  0.89111959     0.75400
O81         O  0.51924990  0.51755363  0.92207720    -0.58400
C82         C  0.59718832  0.49479597  0.95424867     0.75300
C83         C  0.60016805  0.53679645  0.90108900     0.77700
Cd84       Cd  0.56657891  0.49223632  0.91993024     1.37500
O85         O  0.57730504  0.44278656  0.90697454    -0.57300
O86         O  0.57224734  0.53839563  0.90251207    -0.56100
C87         C  0.50493821  0.49665237  0.92961849     0.77700
O88         O  0.61242175  0.51489658  0.90869107    -0.58400
O89         O  0.55712047  0.47501585  0.88900776    -0.56900
O90         O  0.58152489  0.51562548  0.94810329    -0.56900
O91         O  0.51955037  0.47354304  0.93309448    -0.56100
O92         O  0.29499449  0.45223370  0.91081157    -0.57300
C93         C  0.28208475  0.50371438  0.95639556     0.75400
O94         O  0.36533163  0.52071054  0.92556581    -0.58400
C95         C  0.31533538  0.44967804  0.89880809     0.75300
C96         C  0.29078802  0.53887183  0.89801478     0.77700
Cd97       Cd  0.31635319  0.49796819  0.92359910     1.37500
O98         O  0.28596769  0.47849047  0.94951522    -0.57300
O99         O  0.28057197  0.51327829  0.90080531    -0.56100
C100        C  0.37747917  0.49917999  0.93372498     0.77700
O101        O  0.31328489  0.54621574  0.90734487    -0.58400
O102        O  0.29457541  0.52529943  0.94842503    -0.56900
O103        O  0.33639713  0.46811801  0.89925321    -0.56900
O104        O  0.36054245  0.47815535  0.93852880    -0.56100
O105        O  0.19956201  0.47724691  0.01249799    -0.57300
C106        C  0.26336316  0.50855830  0.97246432     0.75400
O107        O  0.19946098  0.56633384  0.99021595    -0.58400
C108        C  0.18421223  0.49053289  0.02459475     0.75300
C109        C  0.26601973  0.53533610  0.02984743     0.77700
Cd110      Cd  0.22467976  0.52210284  0.00167090     1.37500
O111        O  0.24877147  0.48793136  0.98031722    -0.57300
O112        O  0.26452099  0.51045890  0.02215289    -0.56100
C113        C  0.18334138  0.55235684  0.97885025     0.77700
O114        O  0.24914329  0.55550809  0.02380352    -0.58400
O115        O  0.26054859  0.53434733  0.97870835    -0.56900
O116        O  0.18799163  0.51806161  0.02560265    -0.56900
O117        O  0.18636382  0.52467258  0.97867915    -0.56100
O118        O  0.63026565  0.54668923  0.02223216    -0.57300
C119        C  0.69483623  0.54724796  0.97706708     0.75400
O120        O  0.67972022  0.46792222  0.00925205    -0.58400
C121        C  0.61634693  0.52567685  0.03013356     0.75300
C122        C  0.61532708  0.49929691  0.97066983     0.77700
Cd123      Cd  0.65491734  0.51364057  0.99982113     1.37500
O124        O  0.67982417  0.56004103  0.98952770    -0.57300
O125        O  0.61591674  0.52426740  0.97829176    -0.56100
C126        C  0.69835569  0.48064378  0.01962652     0.77700
O127        O  0.63208112  0.47953537  0.97727927    -0.58400
O128        O  0.69106472  0.51974076  0.97572546    -0.56900
O129        O  0.61954337  0.50019633  0.02350853    -0.56900
O130        O  0.69640815  0.50837935  0.02065165    -0.56100
O131        O  0.59406816  0.55471967  0.05392592    -0.57300
C132        C  0.56601672  0.58281144  0.10586521     0.75400
O133        O  0.51812228  0.50916356  0.08321323    -0.58400
C134        C  0.59825926  0.52974001  0.04672206     0.75300
C135        C  0.59859767  0.49431293  0.10399016     0.77700
Cd136      Cd  0.56615538  0.53406563  0.08078380     1.37500
O137        O  0.58272209  0.58344206  0.09174837    -0.57300
O138        O  0.60724005  0.52020779  0.10028869    -0.56100
C139        C  0.50509252  0.52509658  0.07141261     0.77700
O140        O  0.57455653  0.48617285  0.09662160    -0.58400
O141        O  0.54804232  0.56146365  0.10721149    -0.56900
O142        O  0.58689847  0.50770427  0.05490007    -0.56900
O143        O  0.52078666  0.54485133  0.06361609    -0.56100
O144        O  0.28538649  0.56253076  0.05533899    -0.57300
C145        C  0.32252448  0.58830425  0.10535856     0.75400
O146        O  0.30707253  0.49409825  0.09620178    -0.58400
C147        C  0.28524551  0.53925441  0.04581342     0.75300
C148        C  0.37816001  0.53068995  0.07006833     0.77700
Cd149      Cd  0.31737566  0.54097621  0.07966627     1.37500
O150        O  0.30820941  0.59222981  0.09052055    -0.57300
O151        O  0.36411825  0.55285614  0.06414200    -0.56100
C152        C  0.28154191  0.50139815  0.10176934     0.77700
O153        O  0.36343110  0.51263334  0.07993994    -0.58400
O154        O  0.33538489  0.56389358  0.10736610    -0.56900
O155        O  0.30129201  0.51828555  0.05133951    -0.56900
O156        O  0.27295881  0.52659579  0.09674710    -0.56100
O157        O  0.58609464  0.34696309  0.86054754    -0.57300
C158        C  0.56717041  0.42887089  0.87568578     0.75400
O159        O  0.56948311  0.42166702  0.81739266    -0.58400
C160        C  0.58572552  0.33037998  0.84657528     0.75300
C161        C  0.50139124  0.37874727  0.84165973     0.77700
Cd162      Cd  0.56412691  0.38976553  0.84480364     1.37500
O163        O  0.57692887  0.40290902  0.87706505    -0.57300
O164        O  0.51539056  0.37612932  0.85661663    -0.56100
C165        C  0.59746062  0.42346356  0.81766128     0.77700
O166        O  0.51657093  0.38641911  0.82765847    -0.58400
O167        O  0.55689232  0.43656030  0.86018055    -0.56900
O168        O  0.57727110  0.34206645  0.83158476    -0.56900
O169        O  0.61008800  0.40850744  0.83016443    -0.56100
O170        O  0.58430804  0.18823731  0.86503486    -0.57300
C171        C  0.57043189  0.10322361  0.87990055     0.75400
O172        O  0.52376500  0.13483663  0.83177687    -0.58400
C173        C  0.58782412  0.20381091  0.85062195     0.75300
C174        C  0.60388136  0.10964385  0.82160214     0.77700
Cd175      Cd  0.57025004  0.14257988  0.84868507     1.37500
O176        O  0.59047892  0.12270479  0.87830928    -0.57300
O177        O  0.61493856  0.11805541  0.83673246    -0.56100
C178        C  0.50791575  0.14978692  0.84263073     0.77700
O179        O  0.57764292  0.11799440  0.81858616    -0.58400
O180        O  0.55086795  0.10263928  0.86750901    -0.56900
O181        O  0.58543077  0.19031975  0.83544901    -0.56900
O182        O  0.52132309  0.16162055  0.85599733    -0.56100
O183        O  0.29916996  0.12339915  0.87563625    -0.57300
C184        C  0.30006700  0.20269939  0.84596862     0.75400
O185        O  0.36528050  0.14173247  0.82840304    -0.58400
C186        C  0.31780464  0.10270042  0.87648696     0.75300
C187        C  0.28627790  0.10855197  0.81759755     0.77700
Cd188      Cd  0.31786484  0.14203094  0.84511194     1.37500
O189        O  0.29386780  0.18517177  0.85915459    -0.57300
O190        O  0.27267938  0.12205345  0.83026846    -0.56100
C191        C  0.38012671  0.15215133  0.84169231     0.77700
O192        O  0.31407880  0.11183938  0.81728719    -0.58400
O193        O  0.31277988  0.19152187  0.83212532    -0.56900
O194        O  0.33576380  0.10060571  0.86315890    -0.56900
O195        O  0.36569429  0.15837280  0.85613728    -0.56100
O196        O  0.29560307  0.34319653  0.86744103    -0.57300
C197        C  0.31431247  0.42765393  0.88424973     0.75400
O198        O  0.35751023  0.39387042  0.83425927    -0.58400
C199        C  0.29374553  0.32927101  0.85241544     0.75300
C200        C  0.28306816  0.42761002  0.82670104     0.77700
Cd201      Cd  0.31259754  0.38984455  0.85287053     1.37500
O202        O  0.29231834  0.41062342  0.88195646    -0.57300
O203        O  0.27065068  0.41999642  0.84176577    -0.56100
C204        C  0.37412512  0.38053674  0.84552772     0.77700
O205        O  0.30807884  0.41636180  0.82364145    -0.58400
O206        O  0.33525912  0.42600034  0.87269366    -0.56900
O207        O  0.29700262  0.34455048  0.83786420    -0.56900
O208        O  0.36187312  0.37123251  0.86025815    -0.56100
O209        O  0.29234842  0.84980804  0.14143682    -0.57300
C210        C  0.32236784  0.93135746  0.11993981     0.75400
O211        O  0.31880177  0.92319877  0.17977457    -0.58400
C212        C  0.30176626  0.83277696  0.15403312     0.75300
C213        C  0.38418400  0.88251902  0.15456026     0.77700
Cd214      Cd  0.32196623  0.89305208  0.15181625     1.37500
O215        O  0.30793652  0.90736167  0.11936707    -0.57300
O216        O  0.36939835  0.87647332  0.14026744    -0.56100
C217        C  0.29128717  0.92791828  0.17889664     0.77700
O218        O  0.36973750  0.89327585  0.16793276    -0.58400
O219        O  0.33599457  0.93679303  0.13472463    -0.56900
O220        O  0.31853122  0.84441388  0.16589929    -0.56900
O221        O  0.27784413  0.91541974  0.16577861    -0.56100
O222        O  0.59094474  0.90028283  0.12344174    -0.57300
C223        C  0.59841525  0.82556874  0.15512382     0.75400
O224        O  0.58023610  0.91243803  0.18418311    -0.58400
C225        C  0.57494645  0.92307429  0.12325014     0.75300
C226        C  0.51191929  0.87543267  0.15850720     0.77700
Cd227      Cd  0.57466864  0.88458355  0.15506823     1.37500
O228        O  0.60121273  0.84254898  0.14128903    -0.57300
O229        O  0.52664542  0.86648906  0.14473975    -0.56100
C230        C  0.60630745  0.92122538  0.18075878     0.77700
O231        O  0.52673923  0.88707598  0.17134576    -0.58400
O232        O  0.58621157  0.83664550  0.16922259    -0.56900
O233        O  0.55900145  0.92740818  0.13733820    -0.56900
O234        O  0.61793661  0.91131043  0.16614664    -0.56100
O235        O  0.58716637  0.62508554  0.12079044    -0.57300
C236        C  0.59918170  0.69973907  0.15496297     0.75400
O237        O  0.52810648  0.63959394  0.17082678    -0.58400
C238        C  0.56833940  0.60425319  0.12082763     0.75300
C239        C  0.60528881  0.60100699  0.17754652     0.77700
Cd240      Cd  0.57432961  0.64084359  0.15291336     1.37500
O241        O  0.60084381  0.68501040  0.14018711    -0.57300
O242        O  0.61680927  0.61007011  0.16252574    -0.56100
C243        C  0.51261658  0.65240681  0.15870175     0.77700
O244        O  0.58020536  0.61154955  0.18136784    -0.58400
O245        O  0.58798431  0.68634051  0.16867933    -0.56900
O246        O  0.55236363  0.60140158  0.13510009    -0.56900
O247        O  0.52628818  0.66112838  0.14432916    -0.56100
O248        O  0.30021552  0.69192902  0.14026937    -0.57300
C249        C  0.32334420  0.60977370  0.12029081     0.75400
O250        O  0.36897550  0.64726491  0.17033690    -0.58400
C251        C  0.30295381  0.70611252  0.15518755     0.75300
C252        C  0.29155490  0.60699297  0.17676113     0.77700
Cd253      Cd  0.32314428  0.64622983  0.15236747     1.37500
O254        O  0.30768393  0.63286386  0.12038934    -0.57300
O255        O  0.27906549  0.61881310  0.16296714    -0.56100
C256        C  0.38519699  0.65547748  0.15692101     0.77700
O257        O  0.31796489  0.61479902  0.17984853    -0.58400
O258        O  0.33901234  0.60480866  0.13437972    -0.56900
O259        O  0.31287536  0.69165610  0.16874854    -0.56900
O260        O  0.37233580  0.65974153  0.14165664    -0.56100
O261        O  0.02538213  0.91525573  0.89016914    -0.57300
C262        C  0.10521573  0.89234100  0.87244511     0.75400
O263        O  0.09722316  0.89643187  0.93325624    -0.58400
C264        C  0.00811632  0.91271146  0.90388281     0.75300
C265        C  0.05728854  0.82901253  0.90762034     0.77700
Cd266      Cd  0.06801474  0.89168603  0.90462234     1.37500
O267        O  0.08246414  0.90848811  0.87284435    -0.57300
O268        O  0.05158903  0.84365783  0.89317414    -0.56100
C269        C  0.10619352  0.92246435  0.93033119     0.77700
O270        O  0.06733698  0.84364512  0.92107080    -0.58400
O271        O  0.11015788  0.87665358  0.88658022    -0.56900
O272        O  0.01959870  0.90353950  0.91876875    -0.56900
O273        O  0.09595437  0.93485536  0.91598836    -0.56100
O274        O  0.77766631  0.87004108  0.88454205    -0.57300
C275        C  0.88121830  0.90716523  0.90262927     0.75400
O276        O  0.79388401  0.88692672  0.93117646    -0.58400
C277        C  0.78155808  0.88724388  0.87094857     0.75300
C278        C  0.83148250  0.82199288  0.90531312     0.77700
Cd279      Cd  0.82157058  0.88414738  0.90190879     1.37500
O280        O  0.86672662  0.90513661  0.88774402    -0.57300
O281        O  0.84140205  0.83682529  0.89176644    -0.56100
C282        C  0.78775893  0.91396071  0.92959820     0.77700
O283        O  0.81810158  0.83641404  0.91765392    -0.58400
O284        O  0.86743985  0.89997597  0.91724157    -0.56900
O285        O  0.80446139  0.90344347  0.87128069    -0.56900
O286        O  0.79813801  0.92718898  0.91551167    -0.56100
O287        O  0.80065882  0.61653433  0.86905813    -0.57300
C288        C  0.87666522  0.61328042  0.90079998     0.75400
O289        O  0.81852582  0.67855536  0.91863730    -0.58400
C290        C  0.77924130  0.63441263  0.86852692     0.75300
C291        C  0.77809974  0.60283873  0.92608060     0.77700
Cd292      Cd  0.81639424  0.63346239  0.90031330     1.37500
O293        O  0.86152912  0.61284967  0.88613589    -0.57300
O294        O  0.79204224  0.58930706  0.91355277    -0.56100
C295        C  0.82671450  0.69503025  0.90537581     0.77700
O296        O  0.78301012  0.63019906  0.92700481    -0.58400
O297        O  0.86290728  0.62074789  0.91528326    -0.56900
O298        O  0.77577197  0.65096019  0.88228110    -0.56900
O299        O  0.83120915  0.68258051  0.89004071    -0.56100
O300        O  0.01810616  0.62085946  0.88796077    -0.57300
C301        C  0.10521355  0.63808038  0.87235924     0.75400
O302        O  0.06304624  0.68474342  0.92097595    -0.58400
C303        C  0.00403062  0.61694652  0.90297187     0.75300
C304        C  0.09931850  0.60639119  0.92862231     0.77700
Cd305      Cd  0.06412661  0.63897683  0.90269812     1.37500
O306        O  0.08095889  0.62402359  0.87125687    -0.57300
O307        O  0.08921524  0.59427420  0.91423820    -0.56100
C308        C  0.05603263  0.70147443  0.90766827     0.77700
O309        O  0.09155529  0.63274821  0.93128236    -0.58400
O310        O  0.10988362  0.65199188  0.88711625    -0.56900
O311        O  0.01867149  0.62120479  0.91754494    -0.56900
O312        O  0.05142620  0.68897793  0.89237267    -0.56100
O313        O  0.64869864  0.01198207  0.75983066    -0.57300
C314        C  0.68018785  0.94597883  0.72103234     0.75400
O315        O  0.74161770  0.00986737  0.73980871    -0.58400
C316        C  0.66196816  0.02819996  0.77142983     0.75300
C317        C  0.70791425  0.94442172  0.77895349     0.77700
Cd318      Cd  0.69459480  0.98580627  0.75009905     1.37500
O319        O  0.66005912  0.96213934  0.72781084    -0.57300
O320        O  0.68256686  0.94670046  0.77171944    -0.56100
C321        C  0.72903777  0.02586652  0.72769451     0.77700
O322        O  0.72822280  0.96122642  0.77265394    -0.58400
O323        O  0.70566564  0.94780796  0.72813761    -0.56900
O324        O  0.68962676  0.02446339  0.77277981    -0.56900
O325        O  0.70128928  0.02294385  0.72645572    -0.56100
O326        O  0.62403314  0.91213006  0.65858459    -0.57300
C327        C  0.67547049  0.92696258  0.70504033     0.75400
O328        O  0.69576127  0.84586401  0.67290461    -0.58400
C329        C  0.62457894  0.89492270  0.64486353     0.75300
C330        C  0.71544301  0.92474051  0.64812481     0.77700
Cd331      Cd  0.67209325  0.89446770  0.67110577     1.37500
O332        O  0.65137124  0.92611786  0.69617403    -0.57300
O333        O  0.68911892  0.93334798  0.65032560    -0.56100
C334        C  0.67338167  0.83246976  0.67952323     0.77700
O335        O  0.72237239  0.90148278  0.65680877    -0.58400
O336        O  0.69645048  0.91155676  0.69889585    -0.56900
O337        O  0.64603839  0.87723090  0.64391075    -0.56900
O338        O  0.65117014  0.84817734  0.68339006    -0.56100
O339        O  0.62675477  0.63254738  0.65627424    -0.57300
C340        C  0.67814944  0.60995999  0.70279213     0.75400
O341        O  0.72418645  0.63760480  0.65254546    -0.58400
C342        C  0.63253120  0.64480815  0.64084707     0.75300
C343        C  0.67761799  0.70548067  0.67889025     0.77700
Cd344      Cd  0.67628592  0.64415005  0.66931995     1.37500
O345        O  0.65422534  0.61197846  0.69377708    -0.57300
O346        O  0.65483140  0.68955207  0.68141674    -0.56100
C347        C  0.71898762  0.61071695  0.64904892     0.77700
O348        O  0.70047478  0.69254323  0.67290675    -0.58400
O349        O  0.69982655  0.62537645  0.69712317    -0.56900
O350        O  0.65778047  0.65662814  0.63898894    -0.56900
O351        O  0.69462782  0.60045498  0.65489173    -0.56100
O352        O  0.73924066  0.52193925  0.73786484    -0.57300
C353        C  0.70439439  0.58389837  0.77809704     0.75400
O354        O  0.66069159  0.57358922  0.72467016    -0.58400
C355        C  0.72665531  0.50591616  0.72584292     0.75300
C356        C  0.65876511  0.50418408  0.76728891     0.77700
Cd357      Cd  0.69304753  0.54700022  0.74703105     1.37500
O358        O  0.72600348  0.57210518  0.76968533    -0.57300
O359        O  0.68663365  0.50657453  0.76857836    -0.56100
C360        C  0.68169767  0.58959022  0.71844299     0.77700
O361        O  0.64638066  0.52149926  0.75582705    -0.58400
O362        O  0.67874446  0.57887787  0.77188385    -0.56900
O363        O  0.69909228  0.50944141  0.72390893    -0.56900
O364        O  0.70683111  0.58634922  0.72580037    -0.56100
O365        O  0.73635809  0.92266004  0.80349079    -0.57300
C366        C  0.75990034  0.88829166  0.85592338     0.75400
O367        O  0.69699021  0.93255964  0.84403898    -0.58400
C368        C  0.71234849  0.92407003  0.79451612     0.75300
C369        C  0.71060365  0.82791717  0.81917766     0.77700
Cd370      Cd  0.71472589  0.88978124  0.82800061     1.37500
O371        O  0.76434742  0.90241764  0.84096369    -0.57300
O372        O  0.73282598  0.84341182  0.81442118    -0.56100
C373        C  0.67108132  0.92346708  0.84747374     0.77700
O374        O  0.68968262  0.84167758  0.82691913    -0.58400
O375        O  0.73538660  0.87495038  0.85757429    -0.56900
O376        O  0.69123297  0.90790283  0.80012222    -0.56900
O377        O  0.66503757  0.89750852  0.84230035    -0.56100
O378        O  0.73287448  0.61127032  0.80020200    -0.57300
C379        C  0.75820690  0.63586534  0.85333814     0.75400
O380        O  0.68469514  0.68500161  0.82566256    -0.58400
C381        C  0.70796197  0.60228177  0.79450472     0.75300
C382        C  0.67070281  0.60993918  0.85285299     0.77700
Cd383      Cd  0.71119746  0.63758945  0.82743411     1.37500
O384        O  0.75933302  0.61915122  0.83937800    -0.57300
O385        O  0.69787511  0.60358626  0.85227579    -0.56100
C386        C  0.70617045  0.69993971  0.81925704     0.77700
O387        O  0.66190154  0.62939093  0.84152823    -0.58400
O388        O  0.73696252  0.65377022  0.85421657    -0.56900
O389        O  0.68552703  0.60988030  0.80374042    -0.56900
O390        O  0.72922885  0.68544292  0.81543312    -0.56100
O391        O  0.24141076  0.00745898  0.75803253    -0.57300
C392        C  0.20768228  0.93819909  0.72214594     0.75400
O393        O  0.16036188  0.95781090  0.77151317    -0.58400
C394        C  0.22863974  0.02450968  0.76936930     0.75300
C395        C  0.16397569  0.02231857  0.72581440     0.77700
Cd396      Cd  0.19504839  0.98177155  0.74918457     1.37500
O397        O  0.22862897  0.95363506  0.72874491    -0.57300
O398        O  0.19097266  0.01593557  0.72365455    -0.56100
C399        C  0.18099741  0.94362430  0.77940954     0.77700
O400        O  0.15052589  0.00945110  0.73912299    -0.58400
O401        O  0.18191628  0.94254106  0.72846530    -0.56900
O402        O  0.20085216  0.02154794  0.77091403    -0.56900
O403        O  0.20693257  0.94693648  0.77302445    -0.56100
O404        O  0.15092358  0.92074799  0.80301470    -0.57300
C405        C  0.12587444  0.89182001  0.85685126     0.75400
O406        O  0.19756281  0.84454263  0.82645435    -0.58400
C407        C  0.17615727  0.92486646  0.79567787     0.75300
C408        C  0.21288416  0.92028609  0.85295066     0.77700
Cd409      Cd  0.17141485  0.89135792  0.82935850     1.37500
O410        O  0.12255957  0.90708587  0.84223481    -0.57300
O411        O  0.18799047  0.93109348  0.84887679    -0.56100
C412        C  0.17565125  0.82972597  0.82075090     0.77700
O413        O  0.21935865  0.89600580  0.84550918    -0.58400
O414        O  0.14872673  0.87602510  0.85785457    -0.56900
O415        O  0.19791498  0.91262558  0.80340734    -0.56900
O416        O  0.15205180  0.84403190  0.81811443    -0.56100
O417        O  0.15267930  0.60943573  0.80500252    -0.57300
C418        C  0.12744839  0.63848414  0.85758111     0.75400
O419        O  0.22107180  0.63549547  0.84685156    -0.58400
C420        C  0.17662354  0.60919684  0.79580432     0.75300
C421        C  0.17940583  0.70225772  0.82196487     0.77700
Cd422      Cd  0.17380694  0.64021810  0.83017828     1.37500
O423        O  0.12342781  0.62646524  0.84204128    -0.57300
O424        O  0.15696316  0.68743252  0.81702074    -0.56100
C425        C  0.21847820  0.60806163  0.84964190     0.77700
O426        O  0.19962273  0.68784320  0.82988708    -0.58400
O427        O  0.15205265  0.65114970  0.86002748    -0.56900
O428        O  0.19770936  0.62481831  0.80178360    -0.56900
O429        O  0.19535779  0.59588533  0.84346995    -0.56100
O430        O  0.16122204  0.57301378  0.77369060    -0.57300
C431        C  0.16268947  0.50850078  0.72923159     0.75400
O432        O  0.23198773  0.56950822  0.72887834    -0.58400
C433        C  0.18111833  0.59028276  0.77973848     0.75300
C434        C  0.22550378  0.50909447  0.77613297     0.77700
Cd435      Cd  0.19566711  0.54883669  0.75165654     1.37500
O436        O  0.14935555  0.52607912  0.73997429    -0.57300
O437        O  0.19767920  0.51141875  0.77537014    -0.56100
C438        C  0.21261886  0.58587093  0.72139818     0.77700
O439        O  0.24026717  0.52497626  0.76478467    -0.58400
O440        O  0.19070426  0.50941480  0.72956860    -0.56900
O441        O  0.20626726  0.58935749  0.77199871    -0.56900
O442        O  0.18700700  0.58578632  0.72856234    -0.56100
O443        O  0.23733608  0.91264835  0.69998244    -0.57300
C444        C  0.26304307  0.88622874  0.64690006     0.75400
O445        O  0.19128062  0.83665808  0.67375488    -0.58400
C446        C  0.21207078  0.91756505  0.70697145     0.75300
C447        C  0.17995942  0.91949728  0.64979016     0.77700
Cd448      Cd  0.21677366  0.88488771  0.67358689     1.37500
O449        O  0.26608969  0.90097545  0.66159787    -0.57300
O450        O  0.20393066  0.92860674  0.65662249    -0.56100
C451        C  0.21246814  0.82255005  0.68103232     0.77700
O452        O  0.17150084  0.89398113  0.65490647    -0.58400
O453        O  0.24031239  0.87010347  0.64562886    -0.56900
O454        O  0.19002706  0.90511646  0.69955212    -0.56900
O455        O  0.23443644  0.83793285  0.68604173    -0.56100
O456        O  0.24266875  0.60335759  0.69595593    -0.57300
C457        C  0.26792503  0.63595178  0.64185114     0.75400
O458        O  0.17437602  0.62308060  0.65466289    -0.58400
C459        C  0.21814625  0.60322772  0.70459008     0.75300
C460        C  0.21455142  0.69483913  0.67748716     0.77700
Cd461      Cd  0.22234983  0.63320755  0.66966791     1.37500
O462        O  0.27284291  0.62229123  0.65690228    -0.57300
O463        O  0.23699783  0.68078601  0.68315060    -0.56100
C464        C  0.18162901  0.59780867  0.64894799     0.77700
O465        O  0.19554457  0.67988126  0.66877561    -0.58400
O466        O  0.24321508  0.64859068  0.64037694    -0.56900
O467        O  0.19732087  0.61791822  0.69756402    -0.56900
O468        O  0.20712324  0.58909886  0.65343847    -0.56100
O469        O  0.52604818  0.62824482  0.60686831    -0.57300
C470        C  0.61154043  0.64546294  0.62551870     0.75400
O471        O  0.60196605  0.64185612  0.56530698    -0.58400
C472        C  0.51383241  0.62409917  0.59136755     0.75300
C473        C  0.56322047  0.70961832  0.58920516     0.77700
Cd474      Cd  0.57331906  0.64739345  0.59393194     1.37500
O475        O  0.58743742  0.63104798  0.62568010    -0.57300
O476        O  0.55362999  0.69544813  0.60313071    -0.56100
C477        C  0.61009581  0.61567624  0.56837264     0.77700
O478        O  0.57676097  0.69474125  0.57716658    -0.58400
O479        O  0.61726050  0.66050729  0.61117936    -0.56900
O480        O  0.53002313  0.62865898  0.57733807    -0.56900
O481        O  0.60001571  0.60378095  0.58303634    -0.56100
O482        O  0.58295450  0.91571593  0.62901756    -0.57300
C483        C  0.50325744  0.92005380  0.59925319     0.75400
O484        O  0.59004394  0.90575054  0.56943795    -0.58400
C485        C  0.60238381  0.89579484  0.63015951     0.75300
C486        C  0.55454708  0.83620477  0.59209781     0.77700
Cd487      Cd  0.56327523  0.89809816  0.59881055     1.37500
O488        O  0.51831588  0.91832552  0.61391700    -0.57300
O489        O  0.54388511  0.84847047  0.60627724    -0.56100
C490        C  0.60020141  0.93104888  0.57306298     0.77700
O491        O  0.56796136  0.85293002  0.58071448    -0.58400
O492        O  0.51671771  0.91321025  0.58454882    -0.56900
O493        O  0.60273415  0.87693901  0.61743536    -0.56900
O494        O  0.59173757  0.94195943  0.58821531    -0.56100
O495        O  0.30424798  0.90700756  0.63032063    -0.57300
C496        C  0.37688300  0.91792883  0.59710180     0.75400
O497        O  0.31981912  0.84641149  0.58020097    -0.58400
C498        C  0.28358752  0.88809239  0.63136372     0.75300
C499        C  0.27882605  0.92104677  0.57358612     0.77700
Cd500      Cd  0.31880587  0.89156508  0.59864012     1.37500
O501        O  0.36240081  0.91594834  0.61207262    -0.57300
O502        O  0.28747782  0.93329697  0.58829774    -0.56100
C503        C  0.33132362  0.83015182  0.59243616     0.77700
O504        O  0.28887732  0.89562278  0.57075138    -0.58400
O505        O  0.36338503  0.90967166  0.58278395    -0.56900
O506        O  0.28016741  0.87124453  0.61773142    -0.56900
O507        O  0.33831204  0.84274176  0.60736127    -0.56100
O508        O  0.37111663  0.61441541  0.60603653    -0.57300
C509        C  0.28899158  0.63713319  0.62636975     0.75400
O510        O  0.32227247  0.68862524  0.57928671    -0.58400
C511        C  0.38688767  0.61909533  0.59180092     0.75300
C512        C  0.29255506  0.60882195  0.56689217     0.77700
Cd513      Cd  0.32696153  0.64019328  0.59417424     1.37500
O514        O  0.31310011  0.62304030  0.62618669    -0.57300
O515        O  0.30265658  0.59622705  0.58119979    -0.56100
C516        C  0.33685223  0.70300669  0.59112359     0.77700
O517        O  0.29925250  0.63572510  0.56502692    -0.58400
O518        O  0.28314998  0.65222720  0.61212663    -0.56900
O519        O  0.37396381  0.63150516  0.57838686    -0.56900
O520        O  0.34758993  0.68803138  0.60426721    -0.56100
O521        O  0.70872932  0.47008768  0.48900467    -0.57300
C522        C  0.77151070  0.50411786  0.52766383     0.75400
O523        O  0.75405063  0.55131207  0.47512907    -0.58400
C524        C  0.69070845  0.48187538  0.47777859     0.75300
C525        C  0.69027976  0.55012152  0.52088316     0.77700
Cd526      Cd  0.73117921  0.51732032  0.49852019     1.37500
O527        O  0.75447032  0.48416131  0.52154724    -0.57300
O528        O  0.69312745  0.52251130  0.52193032    -0.56100
C529        C  0.76893937  0.53085810  0.46771696     0.77700
O530        O  0.70632102  0.56312044  0.50880040    -0.58400
O531        O  0.77096966  0.52889246  0.51955815    -0.56900
O532        O  0.69132735  0.50971986  0.47685685    -0.56900
O533        O  0.76711451  0.50557165  0.47508944    -0.56100
O534        O  0.79159470  0.56004471  0.44352541    -0.57300
C535        C  0.82032575  0.58598669  0.39073391     0.75400
O536        O  0.86825313  0.51361200  0.41869530    -0.58400
C537        C  0.78688888  0.53511591  0.45097291     0.75300
C538        C  0.79604382  0.49627135  0.39225214     0.77700
Cd539      Cd  0.82075755  0.53892745  0.41711335     1.37500
O540        O  0.79790430  0.58175609  0.40105639    -0.57300
O541        O  0.78711237  0.52251274  0.39319614    -0.56100
C542        C  0.88264439  0.53440766  0.42602613     0.77700
O543        O  0.81697820  0.48936993  0.40298322    -0.58400
O544        O  0.84288681  0.57045880  0.39387893    -0.56900
O545        O  0.79803135  0.51315502  0.44302464    -0.56900
O546        O  0.86787115  0.55718281  0.43000367    -0.56100
O547        O  0.10518002  0.55622668  0.44328690    -0.57300
C548        C  0.07637625  0.57757921  0.39040736     0.75400
O549        O  0.07724734  0.48802327  0.40009731    -0.58400
C550        C  0.10740848  0.53226694  0.45225982     0.75300
C551        C  0.01111275  0.53347391  0.42797399     0.77700
Cd552      Cd  0.07356580  0.53389322  0.41883533     1.37500
O553        O  0.09000653  0.58187059  0.40544873    -0.57300
O554        O  0.02702016  0.55641594  0.42897279    -0.56100
C555        C  0.10490017  0.49092568  0.39750354     0.77700
O556        O  0.02476413  0.50996158  0.42412707    -0.58400
O557        O  0.06146933  0.55409526  0.38910249    -0.56900
O558        O  0.09230656  0.51062122  0.44659195    -0.56900
O559        O  0.11714989  0.51274649  0.40509575    -0.56100
O560        O  0.14354606  0.54924968  0.47422966    -0.57300
C561        C  0.21229103  0.54604076  0.51819737     0.75400
O562        O  0.14292926  0.48214497  0.51825981    -0.58400
C563        C  0.12764485  0.52847918  0.46785772     0.75300
C564        C  0.20963370  0.48443105  0.47282450     0.77700
Cd565      Cd  0.16937506  0.51566580  0.49622208     1.37500
O566        O  0.19643963  0.56010501  0.50664684    -0.57300
O567        O  0.20530843  0.51184753  0.47145132    -0.56100
C568        C  0.12838495  0.50292627  0.52561914     0.77700
O569        O  0.19533663  0.47087307  0.48552375    -0.58400
O570        O  0.20848286  0.51844162  0.51886814    -0.56900
O571        O  0.13078231  0.50318533  0.47500533    -0.56900
O572        O  0.13256153  0.52858821  0.51912335    -0.56100
O573        O  0.80324253  0.44866122  0.59156131    -0.57300
C574        C  0.78985091  0.49990711  0.54407421     0.75400
O575        O  0.81343766  0.54602786  0.59209617    -0.58400
C576        C  0.82227327  0.44884374  0.60440209     0.75300
C577        C  0.88338261  0.50132523  0.57035844     0.77700
Cd578      Cd  0.82126885  0.49655122  0.57837640     1.37500
O579        O  0.79012262  0.47602065  0.55322917    -0.57300
O580        O  0.86765529  0.48080570  0.56367514    -0.56100
C581        C  0.79098767  0.53818704  0.60147835     0.77700
O582        O  0.86981865  0.52008156  0.58001131    -0.58400
O583        O  0.80507880  0.52100616  0.55029336    -0.56900
O584        O  0.84113921  0.46946870  0.60416028    -0.56900
O585        O  0.78269501  0.51177216  0.59958981    -0.56100
O586        O  0.10478449  0.47354855  0.54930987    -0.57300
C587        C  0.07347384  0.44937274  0.60336380     0.75400
O588        O  0.08368464  0.54062315  0.59132183    -0.58400
C589        C  0.10844128  0.49840354  0.54149014     0.75300
C590        C  0.01172470  0.49793599  0.56781061     0.77700
Cd591      Cd  0.07434763  0.49374455  0.57511097     1.37500
O592        O  0.08468039  0.44342507  0.58769965    -0.57300
O593        O  0.02690783  0.47626818  0.56241805    -0.56100
C594        C  0.10833959  0.53236485  0.59783735     0.77700
O595        O  0.02612464  0.51857226  0.57538762    -0.58400
O596        O  0.06219095  0.47452949  0.60521942    -0.56900
O597        O  0.09489334  0.51996400  0.54847028    -0.56900
O598        O  0.11726041  0.50731805  0.59279457    -0.56100
O599        O  0.80093486  0.84054067  0.36291115    -0.57300
C600        C  0.82427197  0.92157404  0.38226973     0.75400
O601        O  0.87137998  0.89424792  0.33571598    -0.58400
C602        C  0.79727571  0.82743943  0.34768421     0.75300
C603        C  0.79302525  0.92285062  0.32284300     0.77700
Cd604      Cd  0.82231676  0.88591555  0.34953921     1.37500
O605        O  0.80351493  0.90296674  0.38029099    -0.57300
O606        O  0.78300063  0.91911946  0.33906448    -0.56100
C607        C  0.88453619  0.87491598  0.34528133     0.77700
O608        O  0.81639121  0.90894124  0.31893100    -0.58400
O609        O  0.84356196  0.92287048  0.36959934    -0.56900
O610        O  0.80279719  0.84253268  0.33332701    -0.56900
O611        O  0.86835517  0.85965281  0.35600511    -0.56100
O612        O  0.09475003  0.83867987  0.36279535    -0.57300
C613        C  0.07826609  0.92256646  0.37955309     0.75400
O614        O  0.07910479  0.91529326  0.32067554    -0.58400
C615        C  0.09552167  0.82426084  0.34792245     0.75300
C616        C  0.01268568  0.87571105  0.34470818     0.77700
Cd617      Cd  0.07548144  0.88430262  0.34859471     1.37500
O618        O  0.09692284  0.90193343  0.37829845    -0.57300
O619        O  0.02589164  0.87079129  0.35981784    -0.56100
C620        C  0.10598995  0.92240155  0.32261764     0.77700
O621        O  0.02893030  0.88358240  0.33124064    -0.58400
O622        O  0.05873824  0.92419141  0.36716876    -0.56900
O623        O  0.08910980  0.83853751  0.33341177    -0.56900
O624        O  0.11912641  0.91058289  0.33618810    -0.56100
O625        O  0.79793716  0.62161875  0.37069097    -0.57300
C626        C  0.79843346  0.70130678  0.34498664     0.75400
O627        O  0.87022355  0.63747336  0.32583925    -0.58400
C628        C  0.82029253  0.60641203  0.37504222     0.75300
C629        C  0.79236518  0.60392029  0.31644923     0.77700
Cd630      Cd  0.82183434  0.64239811  0.34236602     1.37500
O631        O  0.80396221  0.68538021  0.35887093    -0.57300
O632        O  0.78352026  0.60724696  0.33291606    -0.56100
C633        C  0.88501570  0.65122480  0.33789780     0.77700
O634        O  0.81443740  0.61950758  0.31161984    -0.58400
O635        O  0.80147949  0.68900309  0.32944883    -0.56900
O636        O  0.84270068  0.60837850  0.36457456    -0.56900
O637        O  0.87013197  0.66170957  0.35106998    -0.56100
O638        O  0.09369382  0.62100828  0.37463169    -0.57300
C639        C  0.09583749  0.69758596  0.34421773     0.75400
O640        O  0.08097733  0.61236620  0.31413689    -0.58400
C641        C  0.07726391  0.59834066  0.37492025     0.75300
C642        C  0.01331571  0.64653974  0.33813265     0.77700
Cd643      Cd  0.07573395  0.63748368  0.34366203     1.37500
O644        O  0.09146731  0.68314915  0.35902289    -0.57300
O645        O  0.02702683  0.65589532  0.35213892    -0.56100
C646        C  0.10808705  0.60620325  0.31589440     0.77700
O647        O  0.02889139  0.63327755  0.32631787    -0.58400
O648        O  0.09330213  0.68321375  0.32942909    -0.56900
O649        O  0.06127020  0.59396998  0.36093510    -0.56900
O650        O  0.12037817  0.61526983  0.33050594    -0.56100
O651        O  0.79912819  0.18873263  0.64351403    -0.57300
C652        C  0.82541107  0.10960265  0.62396229     0.75400
O653        O  0.87315587  0.14730984  0.67348327    -0.58400
C654        C  0.80330069  0.20530897  0.65726643     0.75300
C655        C  0.79503735  0.10961879  0.68202708     0.77700
Cd656      Cd  0.82656152  0.14675042  0.65603175     1.37500
O657        O  0.81716864  0.13609223  0.62234255    -0.57300
O658        O  0.78163177  0.12512071  0.67008383    -0.56100
C659        C  0.88881742  0.15742939  0.66033406     0.77700
O660        O  0.82285924  0.11255948  0.68238552    -0.58400
O661        O  0.83362758  0.10133866  0.63980396    -0.56900
O662        O  0.81618948  0.19384606  0.67100629    -0.56900
O663        O  0.87540209  0.16326295  0.64548025    -0.56100
O664        O  0.08890303  0.19404558  0.63771784    -0.57300
C665        C  0.07956294  0.10570273  0.62196281     0.75400
O666        O  0.08079294  0.11805193  0.68147464    -0.58400
C667        C  0.09816287  0.20660900  0.65215632     0.75300
C668        C  0.01589107  0.15522687  0.65933971     0.77700
Cd669      Cd  0.07761446  0.14608715  0.65257005     1.37500
O670        O  0.09625295  0.12823353  0.62194362    -0.57300
O671        O  0.02774222  0.16092410  0.64383927    -0.56100
C672        C  0.10734700  0.11006326  0.67935982     0.77700
O673        O  0.03292675  0.14619328  0.67195172    -0.58400
O674        O  0.06237938  0.10249695  0.63564566    -0.56900
O675        O  0.10037626  0.19029083  0.66630430    -0.56900
O676        O  0.12080931  0.12047192  0.66529757    -0.56100
O677        O  0.80224831  0.40814114  0.62186529    -0.57300
C678        C  0.80135025  0.33125027  0.65292895     0.75400
O679        O  0.86890150  0.38912649  0.66984775    -0.58400
C680        C  0.82227051  0.42749294  0.61962060     0.75300
C681        C  0.79291836  0.42764993  0.67815986     0.77700
Cd682      Cd  0.82294894  0.39056680  0.65198277     1.37500
O683        O  0.80133267  0.34646125  0.63820440    -0.57300
O684        O  0.77898084  0.41099674  0.66720624    -0.56100
C685        C  0.88444134  0.37780560  0.65716876     0.77700
O686        O  0.82081327  0.42650374  0.67719163    -0.58400
O687        O  0.80883835  0.34460188  0.66748626    -0.56900
O688        O  0.84212609  0.42879623  0.63180753    -0.56900
O689        O  0.87105667  0.37127653  0.64243499    -0.56100
O690        O  0.08651930  0.40430463  0.61874519    -0.57300
C691        C  0.09660112  0.33314605  0.65213673     0.75400
O692        O  0.07856381  0.42185972  0.67984016    -0.58400
C693        C  0.07370011  0.42899287  0.61911739     0.75300
C694        C  0.01172280  0.38183526  0.65683329     0.77700
Cd695      Cd  0.07399483  0.39224379  0.65163884     1.37500
O696        O  0.10212506  0.35066248  0.63887810    -0.57300
O697        O  0.02441198  0.37637240  0.64161683    -0.56100
C698        C  0.10549393  0.42882831  0.67765522     0.77700
O699        O  0.02810604  0.39114741  0.66966352    -0.58400
O700        O  0.08289520  0.34388405  0.66576464    -0.56900
O701        O  0.06131570  0.43602877  0.63412821    -0.56900
O702        O  0.11810115  0.41784229  0.66368653    -0.56100
O703        O  0.70401808  0.06090938  0.49147551    -0.57300
C704        C  0.77231577  0.03259130  0.53201019     0.75400
O705        O  0.70619984  0.97206718  0.51416462    -0.58400
C706        C  0.69062815  0.04661142  0.47893614     0.75300
C707        C  0.77269635  0.00183507  0.47356660     0.77700
Cd708      Cd  0.73210416  0.01713376  0.50272049     1.37500
O709        O  0.75597679  0.05231438  0.52487740    -0.57300
O710        O  0.76921021  0.02794177  0.47919104    -0.56100
C711        C  0.68888425  0.98576362  0.52495260     0.77700
O712        O  0.75810355  0.98171569  0.48194558    -0.58400
O713        O  0.77067828  0.00714158  0.52509369    -0.56900
O714        O  0.69690621  0.01959170  0.47766532    -0.56900
O715        O  0.69189380  0.01347090  0.52510189    -0.56100
O716        O  0.81852634  0.09484912  0.59223157    -0.57300
C717        C  0.79153427  0.03777296  0.54806551     0.75400
O718        O  0.87483495  0.01895072  0.58343650    -0.58400
C719        C  0.82544081  0.08848113  0.60877013     0.75300
C720        C  0.79102925  0.99980020  0.60268038     0.77700
Cd721      Cd  0.82554708  0.04237301  0.58176941     1.37500
O722        O  0.79214425  0.06186185  0.55680688    -0.57300
O723        O  0.78183405  0.02511824  0.59828422    -0.56100
C724        C  0.88849337  0.03753014  0.57335454     0.77700
O725        O  0.81723853  0.99372636  0.59766440    -0.58400
O726        O  0.80758992  0.01728483  0.55429120    -0.56900
O727        O  0.83249201  0.06214235  0.61206614    -0.56900
O728        O  0.87270169  0.05783216  0.56660102    -0.56100
O729        O  0.09250658  0.08806953  0.59174129    -0.57300
C730        C  0.11113922  0.03719278  0.54518745     0.75400
O731        O  0.08495546  0.98970401  0.59573388    -0.58400
C732        C  0.07995191  0.08369885  0.60723941     0.75300
C733        C  0.01708172  0.03346487  0.57169091     0.77700
Cd734      Cd  0.07971263  0.03809057  0.57982281     1.37500
O735        O  0.11243383  0.05986003  0.55523697    -0.57300
O736        O  0.03157362  0.05697450  0.56852996    -0.56100
C737        C  0.11150593  0.99394351  0.60059921     0.77700
O738        O  0.03211744  0.01195237  0.57753907    -0.58400
O739        O  0.09452235  0.01643598  0.55072286    -0.56900
O740        O  0.06743485  0.05901068  0.60967670    -0.56900
O741        O  0.12302426  0.01806440  0.59535662    -0.56100
O742        O  0.18686314  0.97236160  0.51102615    -0.57300
C743        C  0.12925038  0.00481430  0.46929485     0.75400
O744        O  0.14758765  0.05290774  0.52279854    -0.58400
C745        C  0.20460399  0.98477591  0.52213723     0.75300
C746        C  0.20979644  0.05254076  0.47697417     0.77700
Cd747      Cd  0.16806797  0.01966807  0.49879122     1.37500
O748        O  0.14718758  0.98587033  0.47561884    -0.57300
O749        O  0.20770827  0.02478849  0.47660465    -0.56100
C750        C  0.12906361  0.03366547  0.52846339     0.77700
O751        O  0.19281440  0.06577195  0.48819707    -0.58400
O752        O  0.12882104  0.02973839  0.47700963    -0.56900
O753        O  0.20653435  0.01249387  0.52116048    -0.56900
O754        O  0.12754416  0.00988599  0.51955382    -0.56100
O755        O  0.79658778  0.97057776  0.45121085    -0.57300
C756        C  0.82568436  0.94216665  0.39774462     0.75400
O757        O  0.82239949  0.03714870  0.40739480    -0.58400
C758        C  0.79199074  0.99611305  0.45754382     0.75300
C759        C  0.88925363  0.99254129  0.43224434     0.77700
Cd760      Cd  0.82673005  0.98915719  0.42403857     1.37500
O761        O  0.80704452  0.94214291  0.41093099    -0.57300
O762        O  0.87386275  0.97029838  0.43698468    -0.56100
C763        C  0.79985398  0.02941474  0.39822850     0.77700
O764        O  0.87503999  0.01371512  0.42512948    -0.58400
O765        O  0.84537507  0.96203243  0.39786817    -0.56900
O766        O  0.80419739  0.01728471  0.44896539    -0.56900
O767        O  0.78988045  0.00383820  0.40148395    -0.56100
O768        O  0.09724358  0.94430071  0.40729141    -0.57300
C769        C  0.11073418  0.99913285  0.45317671     0.75400
O770        O  0.08514532  0.03867518  0.40041389    -0.58400
C771        C  0.07913729  0.94479398  0.39396054     0.75300
C772        C  0.01773229  0.99645420  0.42790931     0.77700
Cd773      Cd  0.07981754  0.99284722  0.41910387     1.37500
O774        O  0.11132185  0.97489220  0.44462397    -0.57300
O775        O  0.03351255  0.97548361  0.43395446    -0.56100
C776        C  0.11225712  0.03459764  0.39679214     0.77700
O777        O  0.03128352  0.01612130  0.41863536    -0.58400
O778        O  0.09429834  0.01911312  0.44669069    -0.56900
O779        O  0.06167295  0.96630895  0.39306764    -0.56900
O780        O  0.12370146  0.01160617  0.40350694    -0.56100
O781        O  0.67437266  0.06639699  0.27011034    -0.57300
C782        C  0.67359520  0.00457144  0.22481464     0.75400
O783        O  0.74242926  0.06952739  0.22479255    -0.58400
C784        C  0.69458737  0.08258749  0.27685918     0.75300
C785        C  0.73973049  0.00252608  0.26941056     0.77700
Cd786      Cd  0.70810717  0.04411660  0.24702109     1.37500
O787        O  0.66118940  0.02090042  0.23671349    -0.57300
O788        O  0.71208098  0.00652958  0.27039778    -0.56100
C789        C  0.72201381  0.08603886  0.21863832     0.77700
O790        O  0.75348822  0.01761199  0.25719198    -0.58400
O791        O  0.70145227  0.00684695  0.22360373    -0.56900
O792        O  0.71987405  0.08163691  0.26928634    -0.56900
O793        O  0.69673202  0.08354156  0.22609007    -0.56100
O794        O  0.66604551  0.10036452  0.30244136    -0.57300
C795        C  0.63877382  0.13002827  0.35432189     0.75400
O796        O  0.73335709  0.12598733  0.34470731    -0.58400
C797        C  0.69001049  0.10070753  0.29326408     0.75300
C798        C  0.69017802  0.19419528  0.31941304     0.77700
Cd799      Cd  0.68609318  0.13176175  0.32758589     1.37500
O800        O  0.63434980  0.12015834  0.33822121    -0.57300
O801        O  0.66846501  0.17865468  0.31421616    -0.56100
C802        C  0.72964196  0.09873012  0.34788888     0.77700
O803        O  0.71064848  0.18037295  0.32758439    -0.58400
O804        O  0.66420689  0.14036313  0.35758973    -0.56900
O805        O  0.71083087  0.11654994  0.29938135    -0.56900
O806        O  0.70619889  0.08735434  0.34160026    -0.56100
O807        O  0.66083127  0.41270029  0.30147091    -0.57300
C808        C  0.63998902  0.38566123  0.35615555     0.75400
O809        O  0.71110538  0.33792991  0.32568008    -0.58400
C810        C  0.68521600  0.41605201  0.29293633     0.75300
C811        C  0.72593365  0.42002792  0.34631879     0.77700
Cd812      Cd  0.68363789  0.38421914  0.32738817     1.37500
O813        O  0.63312534  0.39332994  0.33983301    -0.57300
O814        O  0.70182669  0.42986646  0.34006186    -0.56100
C815        C  0.68985107  0.32201223  0.32023478     0.77700
O816        O  0.73083576  0.39286594  0.34383898    -0.58400
O817        O  0.66626429  0.37732191  0.35878438    -0.56900
O818        O  0.70744332  0.40297916  0.29957023    -0.56900
O819        O  0.66576744  0.33533796  0.31720023    -0.56100
O820        O  0.74535703  0.50411803  0.25791717    -0.57300
C821        C  0.71544933  0.43720431  0.21921646     0.75400
O822        O  0.66749467  0.45022277  0.26995336    -0.58400
C823        C  0.73156059  0.51881991  0.27008732     0.75300
C824        C  0.66769825  0.51672847  0.22432077     0.77700
Cd825      Cd  0.70048462  0.47695122  0.24774761     1.37500
O826        O  0.73500507  0.45495416  0.22516909    -0.57300
O827        O  0.69533507  0.51300539  0.22317246    -0.56100
C828        C  0.68872739  0.43549468  0.27679642     0.77700
O829        O  0.65442787  0.50179169  0.23684991    -0.58400
O830        O  0.69047666  0.43703770  0.22722397    -0.56900
O831        O  0.70403628  0.51395190  0.27137806    -0.56900
O832        O  0.71414725  0.43935145  0.26970357    -0.56100
O833        O  0.75020468  0.10876645  0.19404880    -0.57300
C834        C  0.77175377  0.13878510  0.14066061     0.75400
O835        O  0.68106030  0.13172381  0.15036652    -0.58400
C836        C  0.72595573  0.10600494  0.20282000     0.75300
C837        C  0.72143388  0.20017839  0.17745507     0.77700
Cd838      Cd  0.72707553  0.13844255  0.16878080     1.37500
O839        O  0.77570355  0.12360808  0.15520786    -0.57300
O840        O  0.74489751  0.18595455  0.18069965    -0.56100
C841        C  0.68415384  0.10416602  0.14865033     0.77700
O842        O  0.69983432  0.18512071  0.17147640    -0.58400
O843        O  0.74859482  0.15413536  0.13990808    -0.56900
O844        O  0.70401457  0.12016293  0.19669194    -0.56900
O845        O  0.70674420  0.09319434  0.15617256    -0.56100
O846        O  0.77102466  0.40337085  0.15484214    -0.57300
C847        C  0.71993960  0.41907951  0.20288660     0.75400
O848        O  0.67332515  0.39744374  0.15218191    -0.58400
C849        C  0.76469109  0.39206206  0.13936104     0.75300
C850        C  0.71739803  0.32804356  0.17507779     0.77700
Cd851      Cd  0.72123218  0.39048665  0.16800242     1.37500
O852        O  0.74290685  0.42112324  0.19280922    -0.57300
O853        O  0.74053841  0.34276922  0.17878126    -0.56100
C854        C  0.67677307  0.42486991  0.14957118     0.77700
O855        O  0.69582501  0.34272246  0.16889843    -0.58400
O856        O  0.69951551  0.40207319  0.19751128    -0.56900
O857        O  0.73938645  0.38049176  0.13775822    -0.56900
O858        O  0.70041595  0.43598808  0.15573816    -0.56100
O859        O  0.12443225  0.12605497  0.16070830    -0.57300
C860        C  0.17947424  0.10458050  0.20660001     0.75400
O861        O  0.22294575  0.13218274  0.15565886    -0.58400
C862        C  0.12927478  0.13975043  0.14562115     0.75300
C863        C  0.17985527  0.19879135  0.18140605     0.77700
Cd864      Cd  0.17535426  0.13732750  0.17271189     1.37500
O865        O  0.15609352  0.10287848  0.19702860    -0.57300
O866        O  0.15708892  0.18367966  0.18567658    -0.56100
C867        C  0.21736993  0.10630640  0.15024551     0.77700
O868        O  0.20107685  0.18475051  0.17426637    -0.58400
O869        O  0.19925996  0.12238354  0.20104959    -0.56900
O870        O  0.15407631  0.15242166  0.14384738    -0.56900
O871        O  0.19327403  0.09507270  0.15592044    -0.56100
O872        O  0.15269347  0.41968019  0.19577188    -0.57300
C873        C  0.12459137  0.38762990  0.14500988     0.75400
O874        O  0.21976869  0.39837565  0.15518735    -0.58400
C875        C  0.17729637  0.42054121  0.20410383     0.75300
C876        C  0.17584628  0.32614181  0.17977723     0.77700
Cd877      Cd  0.17175477  0.38781567  0.17096920     1.37500
O878        O  0.12089030  0.40026450  0.16042588    -0.57300
O879        O  0.15438644  0.34170405  0.18520927    -0.56100
C880        C  0.21130623  0.42273191  0.14842128     0.77700
O881        O  0.19623900  0.33964893  0.17102437    -0.58400
O882        O  0.14869413  0.37417192  0.14255457    -0.56900
O883        O  0.19788718  0.40465391  0.19789961    -0.56900
O884        O  0.18511466  0.43016583  0.15231433    -0.56100
O885        O  0.16324006  0.45753833  0.22570077    -0.57300
C886        C  0.16505461  0.52638343  0.26517597     0.75400
O887        O  0.23264065  0.45819458  0.26861486    -0.58400
C888        C  0.18288212  0.44032829  0.21946146     0.75300
C889        C  0.23331812  0.52129943  0.22404471     0.77700
Cd890      Cd  0.19818323  0.48233614  0.24650943     1.37500
O891        O  0.15180279  0.50919058  0.25415232    -0.57300
O892        O  0.20726839  0.51364944  0.21979957    -0.56100
C893        C  0.21198525  0.44464067  0.27713708     0.77700
O894        O  0.24394024  0.50992339  0.23864073    -0.58400
O895        O  0.19262251  0.52269086  0.26683561    -0.56900
O896        O  0.20854251  0.44199248  0.22635682    -0.56900
O897        O  0.18592390  0.44824374  0.27122645    -0.56100
O898        O  0.24765035  0.02414778  0.24204580    -0.57300
C899        C  0.21569795  0.08876822  0.28042803     0.75400
O900        O  0.16578947  0.06786408  0.22925008    -0.58400
C901        C  0.23463778  0.00742600  0.23062966     0.75300
C902        C  0.16870578  0.00681966  0.27574797     0.77700
Cd903      Cd  0.20082893  0.04748351  0.25250569     1.37500
O904        O  0.23590129  0.07334582  0.27310517    -0.57300
O905        O  0.19650022  0.01005395  0.27638533    -0.56100
C906        C  0.18481508  0.08598078  0.22283396     0.77700
O907        O  0.15521571  0.02252867  0.26389006    -0.58400
O908        O  0.18962639  0.08546856  0.27440473    -0.56900
O909        O  0.20673000  0.00934362  0.23011379    -0.56900
O910        O  0.20981184  0.08670759  0.23061881    -0.56100
O911        O  0.24667342  0.11204350  0.30294706    -0.57300
C912        C  0.27305570  0.14389020  0.35594805     0.75400
O913        O  0.20236219  0.18992073  0.32865097    -0.58400
C914        C  0.22125303  0.10860446  0.29585544     0.75300
C915        C  0.18782285  0.10846218  0.35144331     0.77700
Cd916      Cd  0.22736071  0.14229208  0.32876592     1.37500
O917        O  0.27760403  0.13033780  0.34092320    -0.57300
O918        O  0.21304883  0.09933509  0.34662362    -0.56100
C919        C  0.22196080  0.20380513  0.31945006     0.77700
O920        O  0.18009455  0.13343916  0.34523438    -0.58400
O921        O  0.24875898  0.15723631  0.35757061    -0.56900
O922        O  0.19997261  0.12219943  0.30322960    -0.56900
O923        O  0.24333830  0.18854261  0.31354031    -0.56100
O924        O  0.24260949  0.42203311  0.30028230    -0.57300
C925        C  0.27090625  0.39287622  0.35313155     0.75400
O926        O  0.17509235  0.39834338  0.34373936    -0.58400
C927        C  0.21713152  0.42620835  0.29349869     0.75300
C928        C  0.21770677  0.33145258  0.31917031     0.77700
Cd929      Cd  0.22298874  0.39321236  0.32734048     1.37500
O930        O  0.27098567  0.41137398  0.33990399    -0.57300
O931        O  0.24002931  0.34645550  0.31392345    -0.56100
C932        C  0.18219048  0.42230202  0.35142866     0.77700
O933        O  0.19731405  0.34573476  0.32701199    -0.58400
O934        O  0.25010462  0.37418273  0.35352472    -0.56900
O935        O  0.19552988  0.41423622  0.30182761    -0.56900
O936        O  0.20751892  0.43265938  0.34759974    -0.56100
O937        O  0.59284283  0.39563067  0.36990961    -0.57300
C938        C  0.51874885  0.40498292  0.40064449     0.75400
O939        O  0.58121463  0.33673937  0.41989466    -0.58400
C940        C  0.61890161  0.38593290  0.37153222     0.75300
C941        C  0.61069452  0.41878267  0.42916357     0.77700
Cd942      Cd  0.57883521  0.38410380  0.40245882     1.37500
O943        O  0.53632505  0.40818679  0.38709524    -0.57300
O944        O  0.59891552  0.43044664  0.41507533    -0.56100
C945        C  0.57125504  0.32122848  0.40685479     0.77700
O946        O  0.60622050  0.39144878  0.43130390    -0.58400
O947        O  0.52946804  0.39325581  0.41502368    -0.56900
O948        O  0.62620115  0.37615773  0.38724380    -0.56900
O949        O  0.56418677  0.33514401  0.39234121    -0.56100
O950        O  0.53012709  0.10838791  0.38505050    -0.57300
C951        C  0.61615659  0.12986623  0.36888634     0.75400
O952        O  0.58117250  0.17800386  0.41575178    -0.58400
C953        C  0.51497961  0.10919335  0.39980611     0.75300
C954        C  0.60833572  0.09759239  0.42623570     0.77700
Cd955      Cd  0.57526696  0.13073406  0.39931384     1.37500
O956        O  0.59153554  0.11647913  0.36750032    -0.57300
O957        O  0.60564123  0.08910631  0.40970888    -0.56100
C958        C  0.56897139  0.19364436  0.40344168     0.77700
O959        O  0.59397838  0.12042831  0.43045799    -0.58400
O960        O  0.62101589  0.14323291  0.38382794    -0.56900
O961        O  0.52862986  0.11779205  0.41399533    -0.56900
O962        O  0.55943182  0.17987036  0.38955866    -0.56100
O963        O  0.37453974  0.12016890  0.38932869    -0.57300
C964        C  0.29399227  0.14395478  0.37129801     0.75400
O965        O  0.30363275  0.14036800  0.43255696    -0.58400
C966        C  0.38902331  0.11755967  0.40417181     0.75300
C967        C  0.34478974  0.20607458  0.40679762     0.77700
Cd968      Cd  0.33150116  0.14427983  0.40321965     1.37500
O969        O  0.31681472  0.12793476  0.37168789    -0.57300
O970        O  0.35326401  0.19125791  0.39307262    -0.56100
C971        C  0.29376830  0.11470284  0.42974118     0.77700
O972        O  0.33115484  0.19177820  0.41930313    -0.58400
O973        O  0.28917619  0.15974943  0.38527349    -0.56900
O974        O  0.37585079  0.12570532  0.41868755    -0.56900
O975        O  0.30239181  0.10261199  0.41496057    -0.56100
O976        O  0.31175560  0.41375957  0.36959262    -0.57300
C977        C  0.39197295  0.41390775  0.39693723     0.75400
O978        O  0.30342398  0.39924487  0.42833276    -0.58400
C979        C  0.29273596  0.39335362  0.36798549     0.75300
C980        C  0.34262901  0.33301215  0.40635058     0.77700
Cd981      Cd  0.33137696  0.39431778  0.39929149     1.37500
O982        O  0.37665778  0.40989133  0.38260324    -0.57300
O983        O  0.34874327  0.34563024  0.39115014    -0.56100
C984        C  0.29432749  0.42511607  0.42544671     0.77700
O985        O  0.33164203  0.34920888  0.41873318    -0.58400
O986        O  0.37807121  0.41214190  0.41213985    -0.56900
O987        O  0.29234789  0.37363676  0.38040751    -0.56900
O988        O  0.30365120  0.43742477  0.41072962    -0.56100
O989        O  0.87220386  0.11966428  0.10492453    -0.57300
C990        C  0.79182450  0.13832403  0.12479863     0.75400
O991        O  0.80932854  0.18393946  0.07718941    -0.58400
C992        C  0.88636931  0.11832492  0.08980626     0.75300
C993        C  0.79062038  0.10219278  0.06674247     0.77700
Cd994      Cd  0.82576801  0.13753028  0.09131434     1.37500
O995        O  0.81311404  0.12043223  0.12334744    -0.57300
O996        O  0.79551441  0.09437933  0.08326328    -0.56100
C997        C  0.82851786  0.20002302  0.08487259     0.77700
O998        O  0.80328270  0.12573171  0.06146917    -0.58400
O999        O  0.78739834  0.15548884  0.11131411    -0.56900
O1000       O  0.87173206  0.12418749  0.07540213    -0.56900
O1001       O  0.84742297  0.18672148  0.09468452    -0.56100
O1002       O  0.08394146  0.12668995  0.13026085    -0.57300
C1003       C  0.01301241  0.11926572  0.09417545     0.75400
O1004       O  0.07935808  0.18940790  0.08239566    -0.58400
C1005       C  0.10828961  0.14066546  0.13027122     0.75300
C1006       C  0.10776572  0.11071579  0.07112981     0.77700
Cd1007     Cd  0.07211532  0.14196045  0.09765313     1.37500
O1008       O  0.02810385  0.11421222  0.10854436    -0.57300
O1009       O  0.09765392  0.09828546  0.08558701    -0.56100
C1010       C  0.06269008  0.20418764  0.09281595     0.77700
O1011       O  0.10035465  0.13722952  0.06880663    -0.58400
O1012       O  0.02621992  0.13310007  0.08130717    -0.56900
O1013       O  0.11471472  0.15517907  0.11584288    -0.56900
O1014       O  0.04969585  0.18985604  0.10561054    -0.56100
O1015       O  0.80995398  0.40443068  0.12350917    -0.57300
C1016       C  0.88078757  0.40949860  0.08903359     0.75400
O1017       O  0.81292641  0.34255720  0.07514529    -0.58400
C1018       C  0.78488596  0.39187279  0.12358461     0.75300
C1019       C  0.78665580  0.42181879  0.06423974     0.77700
Cd1020     Cd  0.82073743  0.38949863  0.09085072     1.37500
O1021       O  0.86364621  0.41718674  0.10199796    -0.57300
O1022       O  0.80128313  0.43485713  0.07662832    -0.56100
C1023       C  0.82739914  0.32719642  0.08657672     0.77700
O1024       O  0.78944919  0.39419976  0.06366172    -0.58400
O1025       O  0.86945310  0.39383081  0.07651627    -0.56900
O1026       O  0.77733264  0.37885033  0.10901056    -0.56900
O1027       O  0.83917487  0.34084774  0.09986625    -0.56100
O1028       O  0.02204533  0.41758877  0.10900975    -0.57300
C1029       C  0.10316242  0.38910384  0.12997862     0.75400
O1030       O  0.07246858  0.34625789  0.08151133    -0.58400
C1031       C  0.00718701  0.41304188  0.09448638     0.75300
C1032       C  0.10323139  0.42527045  0.07229510     0.77700
Cd1033     Cd  0.06662497  0.39252869  0.09773285     1.37500
O1034       O  0.08065592  0.40563864  0.13018212    -0.57300
O1035       O  0.09141219  0.43756880  0.08613005    -0.56100
C1036       C  0.05642305  0.33109440  0.09242654     0.77700
O1037       O  0.09695789  0.39841799  0.07017548    -0.58400
O1038       O  0.10758735  0.37444972  0.11551160    -0.56900
O1039       O  0.02092336  0.40124969  0.08122142    -0.56900
O1040       O  0.04400065  0.34495917  0.10539656    -0.56100
C1041       C  0.92578572  0.42192593  0.10664337    -0.19800
C1042       C  0.91280193  0.41656649  0.08938214    -0.06300
C1043       C  0.93108842  0.41521015  0.07348201     0.14500
C1044       C  0.96188877  0.41693463  0.07554799    -0.19800
C1045       C  0.97501956  0.41904454  0.09308905    -0.06300
C1046       C  0.95660851  0.42268110  0.10881041     0.14500
C1047       C  0.96885065  0.42550757  0.12808619    -0.23200
H1048       H  0.91179110  0.42340775  0.11880077     0.15800
H1049       H  0.97582687  0.41488157  0.06342035     0.15800
C1050       C  0.91862548  0.41140796  0.05432155    -0.23100
H1051       H  0.95104038  0.42821561  0.13856624     0.06100
H1052       H  0.98355812  0.44512667  0.12884687     0.09300
H1053       H  0.98130726  0.40535319  0.13186905     0.09300
H1054       H  0.90194834  0.42872346  0.05150459     0.09300
H1055       H  0.90834493  0.38928891  0.05297811     0.09300
H1056       H  0.93611211  0.41323379  0.04351982     0.06000
C1057       C  0.07548240  0.28468680  0.07958950    -0.19800
C1058       C  0.05427936  0.29865331  0.09066780    -0.06300
C1059       C  0.03350162  0.28118312  0.10063968     0.14500
C1060       C  0.03627530  0.25040643  0.10049911    -0.19800
C1061       C  0.05898676  0.23651684  0.09053467    -0.06300
C1062       C  0.07820100  0.25400236  0.07934934     0.14500
C1063       C  0.10238654  0.24099172  0.06754823    -0.23200
H1064       H  0.09103860  0.29792115  0.07159689     0.15800
H1065       H  0.02089897  0.23713138  0.10858752     0.15800
C1066       C  0.00829894  0.29450114  0.11141242    -0.23100
H1067       H  0.11513969  0.25818529  0.05987895     0.06100
H1068       H  0.09258379  0.22604024  0.05712931     0.09300
H1069       H  0.11829070  0.22881835  0.07637545     0.09300
H1070       H  0.99518373  0.30912489  0.10223444     0.09300
H1071       H  0.01694375  0.30715652  0.12330079     0.09300
H1072       H  0.99305719  0.27736671  0.11708434     0.06000
C1073       C  0.80517637  0.27982716  0.07705660    -0.19800
C1074       C  0.82932620  0.29487454  0.08476707    -0.06300
C1075       C  0.85413693  0.27874724  0.09086141     0.14500
C1076       C  0.85346405  0.24794175  0.08998447    -0.19800
C1077       C  0.82868362  0.23265042  0.08319401    -0.06300
C1078       C  0.80437388  0.24896389  0.07624183     0.14500
C1079       C  0.77709396  0.23440073  0.06843271    -0.23200
H1080       H  0.78632866  0.29227117  0.07220751     0.15800
H1081       H  0.87235357  0.23571503  0.09497535     0.15800
C1082       C  0.88168416  0.29371828  0.09795832    -0.23100
H1083       H  0.76047857  0.25077333  0.06378431     0.06100
H1084       H  0.76635613  0.22028441  0.07915444     0.09300
H1085       H  0.78319573  0.22097675  0.05625012     0.09300
H1086       H  0.87680438  0.30525398  0.11107227     0.09300
H1087       H  0.89010498  0.30972591  0.08747460     0.09300
H1088       H  0.89961548  0.27770861  0.10082957     0.06000
C1089       C  0.93227767  0.10321388  0.10595876    -0.19800
C1090       C  0.91864293  0.11197604  0.08938020    -0.06300
C1091       C  0.93665195  0.11758032  0.07360984     0.14500
C1092       C  0.96751480  0.11675830  0.07538923    -0.19800
C1093       C  0.98111038  0.11158479  0.09253398    -0.06300
C1094       C  0.96320398  0.10322923  0.10785355     0.14500
C1095       C  0.97606660  0.09579911  0.12650878    -0.23200
H1096       H  0.91862524  0.09801639  0.11792806     0.15800
H1097       H  0.98113433  0.12222041  0.06344575     0.15800
C1098       C  0.92402141  0.12619354  0.05507405    -0.23100
H1099       H  0.95866591  0.08911015  0.13662830     0.06100
H1100       H  0.98761898  0.11531621  0.13224018     0.09300
H1101       H  0.99173537  0.07717921  0.12519841     0.09300
H1102       H  0.91200164  0.14735673  0.05621471     0.09300
H1103       H  0.90887443  0.10864313  0.05011597     0.09300
H1104       H  0.94157659  0.12934368  0.04441795     0.06000
C1105       C  0.33619496  0.25329201  0.42297586    -0.19800
C1106       C  0.34901286  0.23851301  0.40793062    -0.06300
C1107       C  0.36340472  0.25531626  0.39390232     0.14500
C1108       C  0.36249979  0.28610249  0.39465369    -0.19800
C1109       C  0.34723518  0.30084170  0.40875714    -0.06300
C1110       C  0.33498727  0.28415741  0.42358598     0.14500
C1111       C  0.31969727  0.29829046  0.43980308    -0.23200
H1112       H  0.32582456  0.24064587  0.43400026     0.15800
H1113       H  0.37279861  0.29874603  0.38359265     0.15800
C1114       C  0.37910997  0.24144111  0.37773489    -0.23100
H1115       H  0.31190143  0.28170481  0.45012086     0.06100
H1116       H  0.30001440  0.31067334  0.43501224     0.09300
H1117       H  0.33530857  0.31334277  0.44692528     0.09300
H1118       H  0.36300246  0.22927967  0.36906975     0.09300
H1119       H  0.39657128  0.22632846  0.38281008     0.09300
H1120       H  0.39002681  0.25815540  0.36866944     0.06000
C1121       C  0.43364547  0.10154870  0.38691185    -0.19800
C1122       C  0.42034751  0.10765787  0.40407776    -0.06300
C1123       C  0.43823497  0.10759530  0.42012935     0.14500
C1124       C  0.46894271  0.10462355  0.41821237    -0.19800
C1125       C  0.48261342  0.10290509  0.40075480    -0.06300
C1126       C  0.46452394  0.09955630  0.38494590     0.14500
C1127       C  0.47725630  0.09537918  0.36585383    -0.23200
H1128       H  0.41998391  0.10042081  0.37463444     0.15800
H1129       H  0.48256246  0.10593701  0.43049337     0.15800
C1130       C  0.42579310  0.11218102  0.43928625    -0.23100
H1131       H  0.45965198  0.09205998  0.35537538     0.06100
H1132       H  0.49164052  0.07564551  0.36572051     0.09300
H1133       H  0.49017941  0.11516702  0.36159163     0.09300
H1134       H  0.40836069  0.09546233  0.44229369     0.09300
H1135       H  0.41656909  0.13468729  0.44045191     0.09300
H1136       H  0.44305076  0.10999403  0.45010279     0.06000
C1137       C  0.55272702  0.27465929  0.39362777    -0.19800
C1138       C  0.56841656  0.28858284  0.40784877    -0.06300
C1139       C  0.58206952  0.27093338  0.42159714     0.14500
C1140       C  0.58116450  0.24009439  0.41996421    -0.19800
C1141       C  0.56682663  0.22624560  0.40509982    -0.06300
C1142       C  0.55163602  0.24396156  0.39203880     0.14500
C1143       C  0.53425365  0.23113247  0.37622619    -0.23200
H1144       H  0.54157445  0.28796672  0.38332604     0.15800
H1145       H  0.59236742  0.22673685  0.43022347     0.15800
C1146       C  0.59813232  0.28410726  0.43781687    -0.23100
H1147       H  0.52289775  0.24840582  0.36798473     0.06100
H1148       H  0.51693056  0.21587750  0.38166114     0.09300
H1149       H  0.54931349  0.21936428  0.36667271     0.09300
H1150       H  0.58260049  0.29760047  0.44608987     0.09300
H1151       H  0.61693677  0.29794792  0.43286228     0.09300
H1152       H  0.60727146  0.26689894  0.44714282     0.06000
C1153       C  0.47312351  0.41156520  0.38204689    -0.19800
C1154       C  0.48699537  0.41290835  0.39937388    -0.06300
C1155       C  0.46976305  0.41952141  0.41516136     0.14500
C1156       C  0.43904691  0.42243636  0.41340509    -0.19800
C1157       C  0.42469351  0.41800632  0.39645324    -0.06300
C1158       C  0.44218764  0.41360170  0.38034839     0.14500
C1159       C  0.42873353  0.40964811  0.36146670    -0.23200
H1160       H  0.48637964  0.40698495  0.36987134     0.15800
H1161       H  0.42597769  0.42654696  0.42571204     0.15800
C1162       C  0.48331755  0.42321348  0.43402595    -0.23100
H1163       H  0.44593375  0.40732282  0.35055389     0.06100
H1164       H  0.41512771  0.42912546  0.35785596     0.09300
H1165       H  0.41487110  0.38939040  0.36126614     0.09300
H1166       H  0.50132647  0.43994378  0.43335652     0.09300
H1167       H  0.49216026  0.40190854  0.43908942     0.09300
H1168       H  0.46679414  0.43067525  0.44437458     0.06000
C1169       C  0.24164648  0.28460915  0.30996479    -0.19800
C1170       C  0.21650145  0.29881783  0.31705463    -0.06300
C1171       C  0.19219772  0.28131654  0.32323566     0.14500
C1172       C  0.19423710  0.25051355  0.32263950    -0.19800
C1173       C  0.22010919  0.23631880  0.31667844    -0.06300
C1174       C  0.24403193  0.25377418  0.30993140     0.14500
C1175       C  0.27271211  0.24049533  0.30337170    -0.23200
H1176       H  0.26029160  0.29774338  0.30513817     0.15800
H1177       H  0.17571712  0.23737776  0.32765934     0.15800
C1178       C  0.16426551  0.29447444  0.33107430    -0.23100
H1179       H  0.28883985  0.25757912  0.29868922     0.06100
H1180       H  0.26847102  0.22573419  0.29150389     0.09300
H1181       H  0.28320580  0.22800976  0.31483387     0.09300
H1182       H  0.15409483  0.30947111  0.32074146     0.09300
H1183       H  0.16936815  0.30662022  0.34394373     0.09300
H1184       H  0.14752689  0.27734524  0.33471988     0.06000
C1185       C  0.15355783  0.24567021  0.18690777    -0.19800
C1186       C  0.18053450  0.23136218  0.18356709    -0.06300
C1187       C  0.20646791  0.24868738  0.18083559     0.14500
C1188       C  0.20427018  0.27952171  0.18066544    -0.19800
C1189       C  0.17694818  0.29374208  0.18283513    -0.06300
C1190       C  0.15126052  0.27645234  0.18635293     0.14500
C1191       C  0.12098624  0.28987212  0.18858109    -0.23200
H1192       H  0.13362095  0.23262194  0.18908500     0.15800
H1193       H  0.22406842  0.29266499  0.17821271     0.15800
C1194       C  0.23653709  0.23520897  0.17780740    -0.23100
H1195       H  0.10348432  0.27285717  0.19066189     0.06100
H1196       H  0.11522358  0.30266162  0.17596655     0.09300
H1197       H  0.12064327  0.30438840  0.20084896     0.09300
H1198       H  0.23693475  0.22307774  0.16455349     0.09300
H1199       H  0.24184998  0.22010201  0.18945429     0.09300
H1200       H  0.25431694  0.25219171  0.17701850     0.06000
C1201       C  0.69399067  0.24696949  0.17275154    -0.19800
C1202       C  0.71953275  0.23284618  0.17935215    -0.06300
C1203       C  0.74309399  0.25045792  0.18613723     0.14500
C1204       C  0.74114412  0.28128241  0.18499163    -0.19800
C1205       C  0.71630036  0.29537405  0.17742867    -0.06300
C1206       C  0.69198001  0.27780228  0.17167229     0.14500
C1207       C  0.66395353  0.29095481  0.16399491    -0.23200
H1208       H  0.67565280  0.23376934  0.16778631     0.15800
H1209       H  0.75962217  0.29448515  0.18975440     0.15800
C1210       C  0.77054358  0.23731182  0.19456260    -0.23100
H1211       H  0.64729695  0.27380038  0.16051878     0.06100
H1212       H  0.66894226  0.30348167  0.15110191     0.09300
H1213       H  0.65372245  0.30563173  0.17440043     0.09300
H1214       H  0.78303324  0.22480755  0.18400157     0.09300
H1215       H  0.76428449  0.22263125  0.20631029     0.09300
H1216       H  0.78573321  0.25449035  0.19998689     0.06000
C1217       C  0.71527855  0.24217043  0.32489453    -0.19800
C1218       C  0.69132651  0.22688345  0.31705181    -0.06300
C1219       C  0.66864710  0.24336065  0.30832935     0.14500
C1220       C  0.66937184  0.27428531  0.30916827    -0.19800
C1221       C  0.69242046  0.28948801  0.31804736    -0.06300
C1222       C  0.71631489  0.27305864  0.32541051     0.14500
C1223       C  0.74276598  0.28751343  0.33431104    -0.23200
H1224       H  0.73311669  0.22985330  0.33118744     0.15800
H1225       H  0.65143032  0.28668312  0.30304446     0.15800
C1226       C  0.64351496  0.22887756  0.29810280    -0.23100
H1227       H  0.75921014  0.27112500  0.33916695     0.06100
H1228       H  0.73561819  0.30035737  0.34652145     0.09300
H1229       H  0.75416870  0.30213876  0.32413560     0.09300
H1230       H  0.62960428  0.21571881  0.30782139     0.09300
H1231       H  0.65250909  0.21454277  0.28707469     0.09300
H1232       H  0.62887366  0.24530637  0.29137272     0.06000
C1233       C  0.16072381  0.05700491  0.38945197    -0.19800
C1234       C  0.13033910  0.05531273  0.38556940    -0.06300
C1235       C  0.11874372  0.07194020  0.37066926     0.14500
C1236       C  0.13796874  0.08971823  0.36003127    -0.19800
C1237       C  0.16845687  0.09065499  0.36364526    -0.06300
C1238       C  0.17997467  0.07425982  0.37865394     0.14500
C1239       C  0.21239050  0.07518876  0.38366086    -0.23200
H1240       H  0.16957372  0.04446668  0.40096337     0.15800
H1241       H  0.12931910  0.10222991  0.34845578     0.15800
C1242       C  0.08657220  0.07005480  0.36533896    -0.23100
H1243       H  0.21694025  0.06259569  0.39654979     0.06100
H1244       H  0.21956603  0.09831691  0.38587918     0.09300
H1245       H  0.22586413  0.06526833  0.37249036     0.09300
H1246       H  0.07248519  0.07847387  0.37671402     0.09300
H1247       H  0.08050542  0.04683362  0.36238725     0.09300
H1248       H  0.08180701  0.08338200  0.35276907     0.06000
C1249       C  0.77104298  0.03460887  0.36950325    -0.19800
C1250       C  0.78549766  0.04850438  0.38423051    -0.06300
C1251       C  0.78430766  0.07952680  0.38561530     0.14500
C1252       C  0.76693871  0.09550904  0.37298940    -0.19800
C1253       C  0.75079028  0.08128000  0.35905226    -0.06300
C1254       C  0.75392740  0.05049962  0.35682598     0.14500
C1255       C  0.73976191  0.03412124  0.34104028    -0.23200
H1256       H  0.77275323  0.01093344  0.36806435     0.15800
H1257       H  0.76497276  0.11913562  0.37451238     0.15800
C1258       C  0.80006799  0.09581186  0.40077941    -0.23100
H1259       H  0.74685309  0.01074847  0.34062708     0.06100
H1260       H  0.74623884  0.04457348  0.32767855     0.09300
H1261       H  0.71531357  0.03409238  0.34253390     0.09300
H1262       H  0.82432565  0.09252407  0.39950034     0.09300
H1263       H  0.79227393  0.08764900  0.41448054     0.09300
H1264       H  0.79588642  0.11986881  0.40007316     0.06000
C1265       C  0.93656180  0.02001596  0.42833052    -0.19800
C1266       C  0.92221683  0.99378369  0.43380857    -0.06300
C1267       C  0.93982101  0.96924488  0.43886541     0.14500
C1268       C  0.97085413  0.97139052  0.43749486    -0.19800
C1269       C  0.98504044  0.99710332  0.43093379    -0.06300
C1270       C  0.96747735  0.02199098  0.42661425     0.14500
C1271       C  0.98072846  0.05076242  0.41993560    -0.23200
H1272       H  0.92340320  0.03904109  0.42466045     0.15800
H1273       H  0.98409061  0.95230757  0.44095146     0.15800
C1274       C  0.92641686  0.94039771  0.44523162    -0.23100
H1275       H  0.96367091  0.06806625  0.41816448     0.06100
H1276       H  0.99152520  0.04775782  0.40627088     0.09300
H1277       H  0.99707701  0.05894423  0.43012925     0.09300
H1278       H  0.91272059  0.93083337  0.43404998     0.09300
H1279       H  0.91264417  0.94391318  0.45776381     0.09300
H1280       H  0.94362449  0.92396937  0.44883772     0.06000
C1281       C  0.25856110  0.07397440  0.43604803    -0.19800
C1282       C  0.27263271  0.09953191  0.44251158    -0.06300
C1283       C  0.26557206  0.10979623  0.46049264     0.14500
C1284       C  0.24475746  0.09415765  0.47133606    -0.19800
C1285       C  0.23107844  0.06845090  0.46483963    -0.06300
C1286       C  0.23799727  0.05833595  0.44687827     0.14500
C1287       C  0.22318787  0.03161661  0.43864687    -0.23200
H1288       H  0.26345259  0.06616734  0.42226633     0.15800
H1289       H  0.23943065  0.10180993  0.48510146     0.15800
C1290       C  0.27993321  0.13681429  0.46857528    -0.23100
H1291       H  0.22985931  0.02826560  0.42402030     0.06100
H1292       H  0.19875866  0.03427081  0.43899819     0.09300
H1293       H  0.22954175  0.01149616  0.44642571     0.09300
H1294       H  0.27409602  0.15656058  0.46025534     0.09300
H1295       H  0.30434638  0.13408383  0.46884030     0.09300
H1296       H  0.27241743  0.14076469  0.48298445     0.06000
C1297       C  0.96952749  0.05670881  0.56226853    -0.19800
C1298       C  0.98418538  0.03200331  0.56956691    -0.06300
C1299       C  0.96684814  0.00773478  0.57589225     0.14500
C1300       C  0.93582555  0.01009095  0.57635251    -0.19800
C1301       C  0.92121700  0.03561203  0.57025652    -0.06300
C1302       C  0.93843304  0.05876351  0.56233060     0.14500
C1303       C  0.92458430  0.08607492  0.55424783    -0.23200
H1304       H  0.98250400  0.07500521  0.55688385     0.15800
H1305       H  0.92287790  0.99188603  0.58189025     0.15800
C1306       C  0.98048194  0.97930455  0.58249030    -0.23100
H1307       H  0.94147043  0.10153058  0.54848964     0.06100
H1308       H  0.91211745  0.09796630  0.56510615     0.09300
H1309       H  0.90953490  0.07994582  0.54278641     0.09300
H1310       H  0.99406745  0.98322895  0.59498829     0.09300
H1311       H  0.99435904  0.96986090  0.57132081     0.09300
H1312       H  0.96341548  0.96257088  0.58625508     0.06000
C1313       C  0.66546129  0.04690490  0.44858951    -0.19800
C1314       C  0.66900232  0.06005385  0.46597297    -0.06300
C1315       C  0.65110914  0.08437858  0.47057968     0.14500
C1316       C  0.63098482  0.09535180  0.45749740    -0.19800
C1317       C  0.62810774  0.08280440  0.43984342    -0.06300
C1318       C  0.64540068  0.05780517  0.43548692     0.14500
C1319       C  0.64322044  0.04230695  0.41715958    -0.23200
H1320       H  0.67889390  0.02802068  0.44507977     0.15800
H1321       H  0.61764530  0.11425483  0.46108793     0.15800
C1322       C  0.65245382  0.09848282  0.48934433    -0.23100
H1323       H  0.65775410  0.02268552  0.41656314     0.06100
H1324       H  0.65021802  0.05738813  0.40578602     0.09300
H1325       H  0.62013414  0.03462543  0.41491700     0.09300
H1326       H  0.67465491  0.10842246  0.49151696     0.09300
H1327       H  0.64786303  0.08171122  0.50025421     0.09300
H1328       H  0.63584691  0.11627467  0.49080735     0.06000
C1329       C  0.93161357  0.39469389  0.67055255    -0.19800
C1330       C  0.91689708  0.37475172  0.65901085    -0.06300
C1331       C  0.93370462  0.35463830  0.64847587     0.14500
C1332       C  0.96473088  0.35677182  0.64862686    -0.19800
C1333       C  0.97935667  0.37815862  0.65918877    -0.06300
C1334       C  0.96256128  0.39680226  0.67074417     0.14500
C1335       C  0.97676833  0.42017741  0.68252540    -0.23200
H1336       H  0.91879612  0.40989105  0.67878012     0.15800
H1337       H  0.97765591  0.34200591  0.64014806     0.15800
C1338       C  0.91931903  0.33071688  0.63722351    -0.23100
H1339       H  0.96004705  0.43348349  0.68998923     0.06100
H1340       H  0.99006132  0.43544599  0.67370086     0.09300
H1341       H  0.99115812  0.40975423  0.69308038     0.09300
H1342       H  0.90670347  0.34042436  0.62558228     0.09300
H1343       H  0.90426570  0.31736267  0.64616945     0.09300
H1344       H  0.93598472  0.31563807  0.63118482     0.06000
C1345       C  0.10411260  0.25442042  0.63556114    -0.19800
C1346       C  0.10418099  0.23892180  0.65247108    -0.06300
C1347       C  0.10669133  0.25509874  0.66911990     0.14500
C1348       C  0.10635190  0.28600483  0.66838579    -0.19800
C1349       C  0.10380202  0.30134483  0.65156099    -0.06300
C1350       C  0.10400334  0.28532322  0.63485060     0.14500
C1351       C  0.10238245  0.30035438  0.61621513    -0.23200
H1352       H  0.10281951  0.24228005  0.62275129     0.15800
H1353       H  0.10677734  0.29830952  0.68116470     0.15800
C1354       C  0.10843088  0.24035058  0.68783270    -0.23100
H1355       H  0.10234010  0.28429006  0.60471790     0.06100
H1356       H  0.12192499  0.31501094  0.61424142     0.09300
H1357       H  0.08171471  0.31337860  0.61519893     0.09300
H1358       H  0.12799311  0.22567800  0.68833295     0.09300
H1359       H  0.08788692  0.22749908  0.69061924     0.09300
H1360       H  0.11083740  0.25658723  0.69914180     0.06000
C1361       C  0.79707106  0.25083588  0.63902188    -0.19800
C1362       C  0.79613864  0.23706198  0.65644851    -0.06300
C1363       C  0.79202713  0.25446039  0.67238835     0.14500
C1364       C  0.79109002  0.28521569  0.67049946    -0.19800
C1365       C  0.79512224  0.29913378  0.65322569    -0.06300
C1366       C  0.79721112  0.28156084  0.63716040     0.14500
C1367       C  0.80162200  0.29458720  0.61808220    -0.23200
H1368       H  0.80002507  0.23752906  0.62678611     0.15800
H1369       H  0.78887844  0.29852559  0.68279540     0.15800
C1370       C  0.78908080  0.24103050  0.69144577    -0.23100
H1371       H  0.80295349  0.27734838  0.60730599     0.06100
H1372       H  0.82268168  0.30731760  0.61750840     0.09300
H1373       H  0.78271072  0.30904642  0.61454634     0.09300
H1374       H  0.81019997  0.23062097  0.69562037     0.09300
H1375       H  0.77099308  0.22436473  0.69158673     0.09300
H1376       H  0.78374344  0.25785456  0.70199765     0.06000
C1377       C  0.93615072  0.14048321  0.67348812    -0.19800
C1378       C  0.92129087  0.16042623  0.66192159    -0.06300
C1379       C  0.93788785  0.18102232  0.65129763     0.14500
C1380       C  0.96886801  0.17968485  0.65156412    -0.19800
C1381       C  0.98367930  0.15836965  0.66211798    -0.06300
C1382       C  0.96714148  0.13899973  0.67364713     0.14500
C1383       C  0.98170925  0.11556124  0.68530072    -0.23200
H1384       H  0.92342793  0.12487426  0.68173661     0.15800
H1385       H  0.98164201  0.19490560  0.64304373     0.15800
C1386       C  0.92331270  0.20454217  0.63971855    -0.23100
H1387       H  0.96518596  0.10169790  0.69281267     0.06100
H1388       H  0.99619024  0.12595895  0.69578255     0.09300
H1389       H  0.99502586  0.10084528  0.67637389     0.09300
H1390       H  0.90794181  0.21751807  0.64843264     0.09300
H1391       H  0.91101584  0.19444230  0.62811996     0.09300
H1392       H  0.93982438  0.22004266  0.63358564     0.06000
C1393       C  0.10724600  0.57639104  0.28719403    -0.19800
C1394       C  0.12382459  0.58846983  0.30179073    -0.06300
C1395       C  0.15447406  0.58237694  0.30279447     0.14500
C1396       C  0.16693857  0.56282086  0.29018771    -0.19800
C1397       C  0.15000492  0.54908985  0.27641596    -0.06300
C1398       C  0.11991694  0.55695844  0.27441336     0.14500
C1399       C  0.10100379  0.54535566  0.25893491    -0.23200
H1400       H  0.08395350  0.58163574  0.28596393     0.15800
H1401       H  0.19023027  0.55767281  0.29151694     0.15800
C1402       C  0.17453309  0.59603221  0.31703074    -0.23100
H1403       H  0.07849544  0.55510033  0.25908953     0.06100
H1404       H  0.09834971  0.52113601  0.26028672     0.09300
H1405       H  0.11141142  0.55097081  0.24541078     0.09300
H1406       H  0.16797516  0.58851931  0.33110441     0.09300
H1407       H  0.17343000  0.62040650  0.31601227     0.09300
H1408       H  0.19804426  0.58971296  0.31497853     0.06000
C1409       C  0.74919637  0.57226802  0.30913060    -0.19800
C1410       C  0.77733940  0.58275422  0.30388961    -0.06300
C1411       C  0.79033943  0.57202353  0.28739150     0.14500
C1412       C  0.77499906  0.55096421  0.27688707    -0.19800
C1413       C  0.74669796  0.54073904  0.28206536    -0.06300
C1414       C  0.73355711  0.55183674  0.29844703     0.14500
C1415       C  0.70316635  0.54239246  0.30505421    -0.23200
H1416       H  0.73906071  0.58039012  0.32169382     0.15800
H1417       H  0.78510717  0.54270723  0.26435040     0.15800
C1418       C  0.82041111  0.58221267  0.28075238    -0.23100
H1419       H  0.69724381  0.55247951  0.31850455     0.06100
H1420       H  0.70233683  0.51813115  0.30696559     0.09300
H1421       H  0.68619973  0.54941698  0.29490503     0.09300
H1422       H  0.83731947  0.57739143  0.29143436     0.09300
H1423       H  0.81998194  0.60620641  0.27773463     0.09300
H1424       H  0.82722787  0.57095116  0.26785015     0.06000
C1425       C  0.93293670  0.64214739  0.32166370    -0.19800
C1426       C  0.91794522  0.65368194  0.33706462    -0.06300
C1427       C  0.93489551  0.66550009  0.35176772     0.14500
C1428       C  0.96580631  0.66356798  0.35116576    -0.19800
C1429       C  0.98073539  0.65035370  0.33636810    -0.06300
C1430       C  0.96403333  0.64042696  0.32103995     0.14500
C1431       C  0.97845404  0.62780751  0.30403055    -0.23200
H1432       H  0.92021636  0.63370814  0.31016684     0.15800
H1433       H  0.97840029  0.67187050  0.36275744     0.15800
C1434       C  0.92103636  0.67971767  0.36847052    -0.23100
H1435       H  0.96194416  0.62232453  0.29323184     0.06100
H1436       H  0.99027420  0.60720515  0.30762788     0.09300
H1437       H  0.99420293  0.64412321  0.29796354     0.09300
H1438       H  0.90733706  0.66338399  0.37621726     0.09300
H1439       H  0.90730399  0.69869248  0.36406171     0.09300
H1440       H  0.93793233  0.68825274  0.37821070     0.06000
C1441       C  0.14893710  0.95498942  0.31579406    -0.19800
C1442       C  0.12134213  0.94389619  0.31016671    -0.06300
C1443       C  0.10928593  0.95399169  0.29318675     0.14500
C1444       C  0.12512710  0.97477598  0.28250035    -0.19800
C1445       C  0.15290473  0.98548863  0.28803335    -0.06300
C1446       C  0.16495546  0.97537624  0.30499830     0.14500
C1447       C  0.19442965  0.98610416  0.31214576    -0.23200
H1448       H  0.15817979  0.94766672  0.32883181     0.15800
H1449       H  0.11591589  0.98234562  0.26949903     0.15800
C1450       C  0.08013477  0.94274245  0.28589644    -0.23100
H1451       H  0.19936592  0.97701198  0.32609063     0.06100
H1452       H  0.19437842  0.01048079  0.31320803     0.09300
H1453       H  0.21250745  0.97897737  0.30278299     0.09300
H1454       H  0.06186574  0.94892059  0.29539032     0.09300
H1455       H  0.08094236  0.91843750  0.28445150     0.09300
H1456       H  0.07496690  0.95220701  0.27208311     0.06000
C1457       C  0.10598387  0.74356480  0.36151118    -0.19800
C1458       C  0.10159222  0.72985186  0.34437184    -0.06300
C1459       C  0.09949396  0.74767192  0.32824757     0.14500
C1460       C  0.09989702  0.77837139  0.32994699    -0.19800
C1461       C  0.10155959  0.79209719  0.34725501    -0.06300
C1462       C  0.10578959  0.77434996  0.36324104     0.14500
C1463       C  0.10915900  0.78725738  0.38226836    -0.23200
H1464       H  0.10817191  0.73007343  0.37386167     0.15800
H1465       H  0.09725577  0.79174490  0.31759772     0.15800
C1466       C  0.09534069  0.73497391  0.30920417    -0.23100
H1467       H  0.11332404  0.77001641  0.39290723     0.06100
H1468       H  0.08856631  0.79879246  0.38633601     0.09300
H1469       H  0.12822397  0.80280138  0.38240439     0.09300
H1470       H  0.07410639  0.72258020  0.30858750     0.09300
H1471       H  0.11413847  0.72031044  0.30579416     0.09300
H1472       H  0.09451092  0.75236831  0.29834037     0.06000
C1473       C  0.79608253  0.95372400  0.29437274    -0.19800
C1474       C  0.77881784  0.94277309  0.30917031    -0.06300
C1475       C  0.74876581  0.95114383  0.31047787     0.14500
C1476       C  0.73702633  0.97024239  0.29712615    -0.19800
C1477       C  0.75432678  0.98166879  0.28246182    -0.06300
C1478       C  0.78437111  0.97314628  0.28108212     0.14500
C1479       C  0.80435454  0.98412357  0.26574268    -0.23200
H1480       H  0.81908511  0.94740306  0.29333026     0.15800
H1481       H  0.71405666  0.97653786  0.29836646     0.15800
C1482       C  0.72853273  0.93982924  0.32563390    -0.23100
H1483       H  0.82688910  0.97457847  0.26669689     0.06100
H1484       H  0.80675934  0.00841730  0.26651874     0.09300
H1485       H  0.79501056  0.97786036  0.25214636     0.09300
H1486       H  0.73621600  0.94792215  0.33924307     0.09300
H1487       H  0.72811834  0.91537898  0.32560838     0.09300
H1488       H  0.70541719  0.94750609  0.32381238     0.06000
C1489       C  0.93241284  0.88510539  0.32955521    -0.19800
C1490       C  0.91719284  0.87146329  0.34430755    -0.06300
C1491       C  0.93369767  0.85714222  0.35834070     0.14500
C1492       C  0.96473409  0.85812060  0.35759217    -0.19800
C1493       C  0.97996130  0.87294078  0.34328503    -0.06300
C1494       C  0.96345397  0.88608957  0.32881212     0.14500
C1495       C  0.97801252  0.90216230  0.31283144    -0.23200
H1496       H  0.91990560  0.89579784  0.31868332     0.15800
H1497       H  0.97723106  0.84769898  0.36857362     0.15800
C1498       C  0.91914376  0.84164568  0.37455214    -0.23100
H1499       H  0.96150189  0.91141863  0.30307885     0.06100
H1500       H  0.99214144  0.88677449  0.30491072     0.09300
H1501       H  0.99157384  0.92078646  0.31803029     0.09300
H1502       H  0.90505881  0.82325481  0.36957165     0.09300
H1503       H  0.90554974  0.85745151  0.38251831     0.09300
H1504       H  0.93565562  0.83211373  0.38419776     0.06000
C1505       C  0.79192438  0.77927249  0.36354331    -0.19800
C1506       C  0.78983458  0.79548316  0.34700172    -0.06300
C1507       C  0.78470873  0.78012273  0.33029975     0.14500
C1508       C  0.78510648  0.74917823  0.33043577    -0.19800
C1509       C  0.79098278  0.73307906  0.34667072    -0.06300
C1510       C  0.79297611  0.74843388  0.36365514     0.14500
C1511       C  0.79782484  0.73305434  0.38196048    -0.23200
H1512       H  0.79499237  0.79081506  0.37645152     0.15800
H1513       H  0.78255104  0.73757931  0.31750250     0.15800
C1514       C  0.77960088  0.79581954  0.31215192    -0.23100
H1515       H  0.79776418  0.74869388  0.39369172     0.06100
H1516       H  0.81967909  0.72199398  0.38199571     0.09300
H1517       H  0.77982931  0.71675619  0.38454019     0.09300
H1518       H  0.79998562  0.80766623  0.30768053     0.09300
H1519       H  0.76101234  0.81153871  0.31360154     0.09300
H1520       H  0.77377574  0.78020809  0.30097422     0.06000
C1521       C  0.93024651  0.47632923  0.56217046    -0.19800
C1522       C  0.91606253  0.50223202  0.56776602    -0.06300
C1523       C  0.93356181  0.52739955  0.57172281     0.14500
C1524       C  0.96454613  0.52544004  0.57075512    -0.19800
C1525       C  0.97883477  0.49905384  0.56613669    -0.06300
C1526       C  0.96123910  0.47422507  0.56145568     0.14500
C1527       C  0.97455905  0.44501952  0.55632049    -0.23200
H1528       H  0.91698539  0.45703896  0.55902754     0.15800
H1529       H  0.97775597  0.54464811  0.57414174     0.15800
C1530       C  0.92007574  0.55648791  0.57699076    -0.23100
H1531       H  0.95732415  0.42823424  0.55321982     0.06100
H1532       H  0.98795891  0.43638360  0.56797357     0.09300
H1533       H  0.98857837  0.44765641  0.54376640     0.09300
H1534       H  0.90858120  0.55445170  0.59053436     0.09300
H1535       H  0.90424494  0.56367518  0.56617763     0.09300
H1536       H  0.93711834  0.57406012  0.57837779     0.06000
C1537       C  0.24647162  0.44504430  0.46733817    -0.19800
C1538       C  0.23080345  0.46926760  0.46041307    -0.06300
C1539       C  0.23606094  0.47874319  0.44195889     0.14500
C1540       C  0.25713465  0.46405550  0.43116254    -0.19800
C1541       C  0.27309525  0.43995458  0.43810070    -0.06300
C1542       C  0.26755555  0.43028928  0.45652383     0.14500
C1543       C  0.28398473  0.40488580  0.46514651    -0.23200
H1544       H  0.24249170  0.43784261  0.48148549     0.15800
H1545       H  0.26084635  0.47129362  0.41699807     0.15800
C1546       C  0.21893564  0.50363926  0.43323465    -0.23100
H1547       H  0.27778988  0.40153288  0.47989985     0.06100
H1548       H  0.30819918  0.40919573  0.46453948     0.09300
H1549       H  0.27861819  0.38418746  0.45779786     0.09300
H1550       H  0.22425790  0.52468516  0.44018621     0.09300
H1551       H  0.19480171  0.49903605  0.43428017     0.09300
H1552       H  0.22451055  0.50654777  0.41835265     0.06000
C1553       C  0.13188381  0.43988412  0.35944047    -0.19800
C1554       C  0.16195340  0.43772745  0.36407290    -0.06300
C1555       C  0.17236705  0.45109138  0.38039718     0.14500
C1556       C  0.15265323  0.46708480  0.39132107    -0.19800
C1557       C  0.12284257  0.47042843  0.38635252    -0.06300
C1558       C  0.11218258  0.45640231  0.37026457     0.14500
C1559       C  0.08067206  0.45993786  0.36390027    -0.23200
H1560       H  0.12405033  0.42957448  0.34688785     0.15800
H1561       H  0.16077937  0.47757353  0.40373631     0.15800
C1562       C  0.20409559  0.44826074  0.38661598    -0.23100
H1563       H  0.07660793  0.44840678  0.35065239     0.06100
H1564       H  0.07576032  0.48364118  0.36173143     0.09300
H1565       H  0.06525207  0.45051591  0.37439751     0.09300
H1566       H  0.21915295  0.45957051  0.37666179     0.09300
H1567       H  0.21010738  0.42464513  0.38773854     0.09300
H1568       H  0.20767119  0.45840915  0.40035046     0.06000
C1569       C  0.76359832  0.42683175  0.37082688    -0.19800
C1570       C  0.74669860  0.43920004  0.35651064    -0.06300
C1571       C  0.74893328  0.46979571  0.35283950     0.14500
C1572       C  0.76668890  0.48729071  0.36418570    -0.19800
C1573       C  0.78192843  0.47534369  0.37933321    -0.06300
C1574       C  0.78105815  0.44451595  0.38239875     0.14500
C1575       C  0.79721340  0.43018339  0.39824759    -0.23200
H1576       H  0.76207962  0.40336113  0.37351527     0.15800
H1577       H  0.76792306  0.51080206  0.36151277     0.15800
C1578       C  0.73280648  0.48439787  0.33703214    -0.23100
H1579       H  0.79331337  0.40602108  0.39878007     0.06100
H1580       H  0.78945260  0.43948620  0.41155550     0.09300
H1581       H  0.82141448  0.43389984  0.39667263     0.09300
H1582       H  0.70855869  0.48368120  0.33953391     0.09300
H1583       H  0.73817581  0.47317768  0.32386181     0.09300
H1584       H  0.73919084  0.50794674  0.33543830     0.06000
C1585       C  0.93078227  0.55952969  0.43135439    -0.19800
C1586       C  0.91524132  0.53298678  0.42890876    -0.06300
C1587       C  0.93140378  0.50634265  0.42824682     0.14500
C1588       C  0.96249835  0.50729243  0.42892339    -0.19800
C1589       C  0.97819056  0.53404784  0.43015736    -0.06300
C1590       C  0.96186654  0.56053592  0.43192582     0.14500
C1591       C  0.97663685  0.59020867  0.43393572    -0.23200
H1592       H  0.91855939  0.57994843  0.43209678     0.15800
H1593       H  0.97466474  0.48687721  0.42790146     0.15800
C1594       C  0.91633835  0.47671040  0.42683769    -0.23100
H1595       H  0.96026490  0.60817379  0.43555709     0.06100
H1596       H  0.99005588  0.59541917  0.42142470     0.09300
H1597       H  0.99087495  0.59021970  0.44640964     0.09300
H1598       H  0.90499220  0.47472924  0.41332683     0.09300
H1599       H  0.90010300  0.47390863  0.43830393     0.09300
H1600       H  0.93239636  0.45833886  0.42779815     0.06000
C1601       C  0.64874129  0.48052225  0.45578657    -0.19800
C1602       C  0.66986608  0.46473953  0.46605819    -0.06300
C1603       C  0.67093942  0.43371943  0.46423843     0.14500
C1604       C  0.65065695  0.41959017  0.45255393    -0.19800
C1605       C  0.62990330  0.43547046  0.44208036    -0.06300
C1606       C  0.62908522  0.46648601  0.44369899     0.14500
C1607       C  0.60758305  0.48514273  0.43292078    -0.23200
H1608       H  0.64776480  0.50426611  0.45699136     0.15800
H1609       H  0.65167988  0.39588259  0.45116110     0.15800
C1610       C  0.69376618  0.41521827  0.47399477    -0.23100
H1611       H  0.60924694  0.50877597  0.43664763     0.06100
H1612       H  0.58454776  0.47772823  0.43583215     0.09300
H1613       H  0.61236623  0.48356577  0.41790076     0.09300
H1614       H  0.69101418  0.41709291  0.48919241     0.09300
H1615       H  0.71635033  0.42253659  0.46982069     0.09300
H1616       H  0.69165539  0.39153658  0.47047685     0.06000
C1617       C  0.26272319  0.56482524  0.55872081    -0.19800
C1618       C  0.27328148  0.59287064  0.55355638    -0.06300
C1619       C  0.26446848  0.60488040  0.53625997     0.14500
C1620       C  0.24490112  0.58886880  0.52502735    -0.19800
C1621       C  0.23396549  0.56108913  0.53039728    -0.06300
C1622       C  0.24335346  0.54876946  0.54746871     0.14500
C1623       C  0.23255732  0.51913423  0.55438170    -0.23200
H1624       H  0.26929644  0.55543976  0.57188254     0.15800
H1625       H  0.23804747  0.59818968  0.51190065     0.15800
C1626       C  0.27549636  0.63437430  0.52932141    -0.23100
H1627       H  0.24116921  0.51384664  0.56837462     0.06100
H1628       H  0.24025251  0.50154728  0.54497265     0.09300
H1629       H  0.20800004  0.51893507  0.55525824     0.09300
H1630       H  0.30006684  0.63443204  0.52864959     0.09300
H1631       H  0.26769895  0.65209953  0.53859176     0.09300
H1632       H  0.26719505  0.63949280  0.51523031     0.15600
C1633       C  0.24563589  0.96269211  0.56575306    -0.19800
C1634       C  0.25839197  0.93589095  0.56042594    -0.06300
C1635       C  0.25177346  0.92448910  0.54264614     0.14500
C1636       C  0.23359565  0.94066486  0.53063898    -0.19800
C1637       C  0.22218009  0.96801449  0.53572153    -0.06300
C1638       C  0.22771209  0.97891359  0.55366709     0.14500
C1639       C  0.21425427  0.00725455  0.56041259    -0.23200
H1640       H  0.24993686  0.97125044  0.57941726     0.15800
H1641       H  0.22891935  0.93229330  0.51697633     0.15800
C1642       C  0.26403404  0.89568712  0.53586221    -0.23100
H1643       H  0.21913050  0.01114431  0.57523353     0.06100
H1644       H  0.18980280  0.00640380  0.55884617     0.09300
H1645       H  0.22341173  0.02624332  0.55246937     0.09300
H1646       H  0.25627341  0.87736388  0.54494284     0.09300
H1647       H  0.28860728  0.89664408  0.53565542     0.09300
H1648       H  0.25665611  0.89067277  0.52159596     0.06000
C1649       C  0.35589998  0.78335860  0.60136801    -0.19800
C1650       C  0.33563672  0.79800445  0.58988302    -0.06300
C1651       C  0.31874484  0.78129985  0.57720417     0.14500
C1652       C  0.32082618  0.75050496  0.57750530    -0.19800
C1653       C  0.33944914  0.73567768  0.58994911    -0.06300
C1654       C  0.35841306  0.75252017  0.60138789     0.14500
C1655       C  0.38155062  0.73850611  0.61351800    -0.23200
H1656       H  0.36960256  0.79612210  0.61064538     0.15800
H1657       H  0.30685083  0.73787557  0.56832161     0.15800
C1658       C  0.29753713  0.79534740  0.56375619    -0.23100
H1659       H  0.39563460  0.75526442  0.62039729     0.06100
H1660       H  0.39629819  0.72451977  0.60500531     0.09300
H1661       H  0.37085806  0.72505114  0.62455980     0.09300
H1662       H  0.30981901  0.81035196  0.55422008     0.09300
H1663       H  0.28031981  0.80775733  0.57137817     0.09300
H1664       H  0.28602428  0.77873271  0.55513628     0.06000
C1665       C  0.63890389  0.92824558  0.54872800    -0.19800
C1666       C  0.62196410  0.94595038  0.56055789    -0.06300
C1667       C  0.62741804  0.97667105  0.56069655     0.14500
C1668       C  0.64887102  0.98870976  0.54865751    -0.19800
C1669       C  0.66614388  0.97096772  0.53695041    -0.06300
C1670       C  0.66135799  0.94009959  0.53734629     0.14500
C1671       C  0.68013416  0.91920031  0.52631796    -0.23200
H1672       H  0.63528417  0.90461461  0.54885776     0.15800
H1673       H  0.65251333  0.01233397  0.54870249     0.15800
C1674       C  0.61088342  0.99706614  0.57339581    -0.23100
H1675       H  0.67356686  0.89586763  0.52872453     0.06100
H1676       H  0.70368363  0.92148140  0.53045993     0.09300
H1677       H  0.67776362  0.92388038  0.51131963     0.09300
H1678       H  0.61606973  0.99165535  0.58801303     0.09300
H1679       H  0.58668874  0.99499686  0.57103907     0.09300
H1680       H  0.61723531  0.02047096  0.57104326     0.06000
C1681       C  0.45685923  0.92783447  0.58178342    -0.19800
C1682       C  0.47118949  0.92756396  0.59899798    -0.06300
C1683       C  0.45389790  0.93123619  0.61522066     0.14500
C1684       C  0.42288506  0.93091808  0.61386013    -0.19800
C1685       C  0.40862880  0.92679277  0.59682484    -0.06300
C1686       C  0.42590803  0.92738706  0.58041991     0.14500
C1687       C  0.41235301  0.92656138  0.56139786    -0.23200
H1688       H  0.46993331  0.92654480  0.56920737     0.15800
H1689       H  0.40976438  0.93188732  0.62642696     0.15800
C1690       C  0.46752616  0.93438062  0.63409650    -0.23100
H1691       H  0.42928980  0.92961040  0.55034922     0.06100
H1692       H  0.39599740  0.94457694  0.55991516     0.09300
H1693       H  0.40153480  0.90493784  0.55902494     0.09300
H1694       H  0.48324236  0.95327575  0.63405863     0.09300
H1695       H  0.47917254  0.91384752  0.63804087     0.09300
H1696       H  0.45054296  0.93855866  0.64490983     0.06000
C1697       C  0.63433440  0.56931333  0.55882089    -0.19800
C1698       C  0.63040630  0.59958666  0.55573594    -0.06300
C1699       C  0.64661935  0.61351950  0.54122604     0.14500
C1700       C  0.66563991  0.59668716  0.53013818    -0.19800
C1701       C  0.66940967  0.56634171  0.53314449    -0.06300
C1702       C  0.65357649  0.55254534  0.54791192     0.14500
C1703       C  0.65682320  0.52030693  0.55267224    -0.23200
H1704       H  0.62227096  0.55854043  0.56997859     0.15800
H1705       H  0.67781645  0.60747535  0.51904186     0.15800
C1706       C  0.64474552  0.64615629  0.53742960    -0.23100
H1707       H  0.64321290  0.51378850  0.56488188     0.06100
H1708       H  0.68025689  0.51544167  0.55606222     0.09300
H1709       H  0.64937945  0.50660512  0.54091498     0.09300
H1710       H  0.65137993  0.65858066  0.54992365     0.09300
H1711       H  0.62184825  0.65207328  0.53338533     0.09300
H1712       H  0.65968599  0.65318254  0.52595799     0.06000
C1713       C  0.53513584  0.75468517  0.59687586    -0.19800
C1714       C  0.55914040  0.74190354  0.58755103    -0.06300
C1715       C  0.57957876  0.76038917  0.57805083     0.14500
C1716       C  0.57640622  0.79102718  0.57911883    -0.19800
C1717       C  0.55352121  0.80384865  0.58945552    -0.06300
C1718       C  0.53188839  0.78536658  0.59785112     0.14500
C1719       C  0.50514136  0.79760171  0.60761765    -0.23200
H1720       H  0.51901390  0.74053039  0.60374971     0.15800
H1721       H  0.59282428  0.80510509  0.57246647     0.15800
C1722       C  0.60564306  0.74828563  0.56751012    -0.23100
H1723       H  0.48952321  0.77988439  0.61204379     0.06100
H1724       H  0.49305669  0.81265322  0.59816132     0.09300
H1725       H  0.51195091  0.80960691  0.62020717     0.09300
H1726       H  0.59771018  0.73454780  0.55589415     0.09300
H1727       H  0.61967907  0.73490755  0.57688737     0.09300
H1728       H  0.61976912  0.76608178  0.56151311     0.06000
C1729       C  0.46699693  0.60614482  0.60589637    -0.19800
C1730       C  0.48189875  0.61614697  0.58992006    -0.06300
C1731       C  0.46526881  0.62134322  0.57363885     0.14500
C1732       C  0.43428446  0.61948347  0.57443457    -0.19800
C1733       C  0.41920561  0.61283379  0.59099813    -0.06300
C1734       C  0.43593205  0.60419797  0.60665484     0.14500
C1735       C  0.42155633  0.59383472  0.62441866    -0.23200
H1736       H  0.47967283  0.60109441  0.61819691     0.15800
H1737       H  0.42170124  0.62502642  0.56217856     0.15800
C1738       C  0.47950742  0.63047312  0.55555602    -0.23100
H1739       H  0.43819567  0.58656580  0.63472916     0.06100
H1740       H  0.40674058  0.57479329  0.62162509     0.09300
H1741       H  0.40876896  0.61197604  0.63074392     0.09300
H1742       H  0.49528438  0.61330060  0.55101084     0.09300
H1743       H  0.49119870  0.65186792  0.55714494     0.09300
H1744       H  0.46294233  0.63331159  0.54438438     0.06000
C1745       C  0.14900275  0.53547118  0.62046447    -0.19800
C1746       C  0.12590323  0.54990603  0.61118411    -0.06300
C1747       C  0.12017484  0.57977600  0.61530400     0.14500
C1748       C  0.13820427  0.59435839  0.62813392    -0.19800
C1749       C  0.16189136  0.58011780  0.63694301    -0.06300
C1750       C  0.16692327  0.54993683  0.63329173     0.14500
C1751       C  0.19070494  0.53238511  0.64291181    -0.23200
H1752       H  0.15316384  0.51240824  0.61771929     0.15800
H1753       H  0.13412622  0.61744241  0.63096874     0.15800
C1754       C  0.09567942  0.59675439  0.60608233    -0.23100
H1755       H  0.18987081  0.50871394  0.63916570     0.06100
H1756       H  0.18774314  0.53374055  0.65813058     0.09300
H1757       H  0.21294363  0.54077299  0.63885472     0.09300
H1758       H  0.07391160  0.58669273  0.60963191     0.09300
H1759       H  0.09899364  0.59681196  0.59086396     0.09300
H1760       H  0.09512965  0.62004484  0.61065334     0.06000
C1761       C  0.15877439  0.97870933  0.61475920    -0.19800
C1762       C  0.12855245  0.97272143  0.61212041    -0.06300
C1763       C  0.11573351  0.94785400  0.62114624     0.14500
C1764       C  0.13313662  0.93083724  0.63321217    -0.19800
C1765       C  0.16299992  0.93777471  0.63647019    -0.06300
C1766       C  0.17617078  0.96170350  0.62666228     0.14500
C1767       C  0.20862958  0.96951013  0.62823784    -0.23200
H1768       H  0.16898829  0.99719430  0.60757265     0.15800
H1769       H  0.12315415  0.91219877  0.64039053     0.15800
C1770       C  0.08381451  0.93910148  0.61842676    -0.23100
H1771       H  0.21515885  0.98759625  0.61859671     0.06100
H1772       H  0.22237363  0.95009430  0.62478533     0.09300
H1773       H  0.21363367  0.97712881  0.64243207     0.09300
H1774       H  0.07981613  0.93428267  0.60361841     0.09300
H1775       H  0.06905226  0.95707466  0.62306026     0.09300
H1776       H  0.07783461  0.91901066  0.62650527     0.06000
C1777       C  0.18728083  0.77447944  0.67559869    -0.19800
C1778       C  0.21192376  0.78973607  0.68262446    -0.06300
C1779       C  0.23594927  0.77317341  0.68972948     0.14500
C1780       C  0.23539171  0.74233421  0.68844571    -0.19800
C1781       C  0.21159952  0.72720632  0.68033024    -0.06300
C1782       C  0.18663948  0.74359948  0.67444006     0.14500
C1783       C  0.15918486  0.72910662  0.66681576    -0.23200
H1784       H  0.16853160  0.78684216  0.67047448     0.15800
H1785       H  0.25426831  0.72999938  0.69338811     0.15800
C1786       C  0.26262831  0.78745179  0.69846641    -0.23100
H1787       H  0.14152643  0.74535296  0.66380110     0.06100
H1788       H  0.15010912  0.71308206  0.67707298     0.09300
H1789       H  0.16443342  0.71780949  0.65366547     0.09300
H1790       H  0.25553196  0.80121686  0.71028772     0.09300
H1791       H  0.27471049  0.80111275  0.68808280     0.09300
H1792       H  0.27848159  0.77091885  0.70387725     0.06000
C1793       C  0.10474552  0.45950756  0.70604497    -0.19800
C1794       C  0.12081517  0.44898051  0.69074318    -0.06300
C1795       C  0.15053076  0.45852490  0.68824874     0.14500
C1796       C  0.16317611  0.47772920  0.70113614    -0.19800
C1797       C  0.14712657  0.48823829  0.71639649    -0.06300
C1798       C  0.11736424  0.47904061  0.71881657     0.14500
C1799       C  0.09881766  0.48914494  0.73491436    -0.23200
H1800       H  0.08195915  0.45249741  0.70805935     0.15800
H1801       H  0.18587987  0.48492990  0.69908481     0.15800
C1802       C  0.16928101  0.44906596  0.67205478    -0.23100
H1803       H  0.07647352  0.47877916  0.73496704     0.06100
H1804       H  0.09570950  0.51334074  0.73412243     0.09300
H1805       H  0.10979789  0.48315046  0.74811138     0.09300
H1806       H  0.15883987  0.45623924  0.65891229     0.09300
H1807       H  0.17192077  0.42478128  0.67227216     0.09300
H1808       H  0.19182278  0.45896389  0.67241241     0.06000
C1809       C  0.20335384  0.78299178  0.82443686    -0.19800
C1810       C  0.17757807  0.79724256  0.81834192    -0.06300
C1811       C  0.15412388  0.77992262  0.81119467     0.14500
C1812       C  0.15608938  0.74910093  0.81194902    -0.19800
C1813       C  0.18094885  0.73482000  0.81934147    -0.06300
C1814       C  0.20554413  0.75217607  0.82489721     0.14500
C1815       C  0.23419789  0.73880715  0.83143861    -0.23200
H1816       H  0.22180449  0.79604564  0.82943199     0.15800
H1817       H  0.13752323  0.73604901  0.80712390     0.15800
C1818       C  0.12687501  0.79339504  0.80272543    -0.23100
H1819       H  0.25132134  0.75585940  0.83420807     0.06100
H1820       H  0.24317278  0.72403347  0.82064073     0.09300
H1821       H  0.23053235  0.72635639  0.84451555     0.09300
H1822       H  0.13342369  0.80861114  0.79130866     0.09300
H1823       H  0.11406871  0.80540068  0.81336686     0.09300
H1824       H  0.11190334  0.77643290  0.79682581     0.06000
C1825       C  0.12518110  0.06013766  0.72065029    -0.19800
C1826       C  0.14932052  0.04429217  0.71365287    -0.06300
C1827       C  0.15943873  0.05039001  0.69542082     0.14500
C1828       C  0.14559207  0.07241180  0.68496459    -0.19800
C1829       C  0.12158739  0.08840758  0.69194201    -0.06300
C1830       C  0.11115134  0.08208675  0.71008564     0.14500
C1831       C  0.08573490  0.09859654  0.71865207    -0.23200
H1832       H  0.11746293  0.05559201  0.73459825     0.15800
H1833       H  0.15330301  0.07674484  0.67099150     0.15800
C1834       C  0.18416470  0.03329614  0.68648550    -0.23100
H1835       H  0.08186080  0.09185270  0.73326317     0.06100
H1836       H  0.06499862  0.09406473  0.71097921     0.09300
H1837       H  0.09058998  0.12259421  0.71844579     0.09300
H1838       H  0.17896478  0.00937069  0.68698826     0.09300
H1839       H  0.20538515  0.03772302  0.69364230     0.09300
H1840       H  0.18737892  0.03960054  0.67173778     0.06000
C1841       C  0.68239253  0.78078655  0.82115212    -0.19800
C1842       C  0.70916895  0.79530818  0.81669563    -0.06300
C1843       C  0.73392583  0.77815290  0.81148246     0.14500
C1844       C  0.73161338  0.74724960  0.81171252    -0.19800
C1845       C  0.70533935  0.73268172  0.81714638    -0.06300
C1846       C  0.68017090  0.74985708  0.82153249     0.14500
C1847       C  0.65082243  0.73624425  0.82698630    -0.23200
H1848       H  0.66346572  0.79349188  0.82485869     0.15800
H1849       H  0.75074220  0.73451400  0.80820907     0.15800
C1850       C  0.76330264  0.79177579  0.80612542    -0.23100
H1851       H  0.63356566  0.75311781  0.82930459     0.06100
H1852       H  0.65315388  0.72358808  0.84008984     0.09300
H1853       H  0.64287758  0.72156372  0.81581923     0.09300
H1854       H  0.77239993  0.80446857  0.81788800     0.09300
H1855       H  0.76046044  0.80642289  0.79390443     0.09300
H1856       H  0.77992444  0.77490851  0.80239079     0.06000
C1857       C  0.77408230  0.48870580  0.71236915    -0.19800
C1858       C  0.74337647  0.48470367  0.71432609    -0.06300
C1859       C  0.72944438  0.46115333  0.70488327     0.14500
C1860       C  0.74650591  0.44278686  0.69363402    -0.19800
C1861       C  0.77706966  0.44726309  0.69122332    -0.06300
C1862       C  0.79108275  0.47061568  0.70082637     0.14500
C1863       C  0.82364656  0.47745542  0.69869019    -0.23200
H1864       H  0.78478759  0.50667994  0.71951863     0.15800
H1865       H  0.73568024  0.42489195  0.68647686     0.15800
C1866       C  0.69669776  0.45475994  0.70655219    -0.23100
H1867       H  0.83036694  0.49699839  0.70683881     0.06100
H1868       H  0.82888973  0.48227249  0.68395622     0.09300
H1869       H  0.83697017  0.45855543  0.70366642     0.09300
H1870       H  0.68382725  0.47316602  0.70048735     0.09300
H1871       H  0.69054119  0.45149244  0.72130919     0.09300
H1872       H  0.69023774  0.43449929  0.69903007     0.06000
C1873       C  0.75882769  0.60581161  0.62538023    -0.19800
C1874       C  0.73960105  0.59223007  0.63822607    -0.06300
C1875       C  0.73943877  0.56111162  0.63984546     0.14500
C1876       C  0.75700638  0.54459229  0.62787196    -0.19800
C1877       C  0.77503530  0.55796799  0.61432621    -0.06300
C1878       C  0.77658349  0.58912059  0.61338874     0.14500
C1879       C  0.79605507  0.60500431  0.59953805    -0.23200
H1880       H  0.75925871  0.62964216  0.62429009     0.15800
H1881       H  0.75639264  0.52076510  0.62904790     0.15800
C1882       C  0.72126550  0.54484479  0.65428126    -0.23100
H1883       H  0.79384394  0.62928814  0.60053608     0.06100
H1884       H  0.78983023  0.59853833  0.58529689     0.09300
H1885       H  0.81962179  0.59955299  0.60208939     0.09300
H1886       H  0.69730338  0.54715464  0.65134130     0.09300
H1887       H  0.72634437  0.55353599  0.66822821     0.09300
H1888       H  0.72609864  0.52088502  0.65448152     0.06000
C1889       C  0.72344184  0.96043901  0.62267238    -0.19800
C1890       C  0.73613287  0.94144373  0.63579497    -0.06300
C1891       C  0.76743030  0.93996292  0.63695082     0.14500
C1892       C  0.78492544  0.95875264  0.62568085    -0.19800
C1893       C  0.77194785  0.97879026  0.61323760    -0.06300
C1894       C  0.74076063  0.97882895  0.61132607     0.14500
C1895       C  0.72531356  0.99753655  0.59701239    -0.23200
H1896       H  0.69961091  0.96105087  0.62127992     0.15800
H1897       H  0.80878579  0.95831948  0.62692785     0.15800
C1898       C  0.78259732  0.91932418  0.65023378    -0.23100
H1899       H  0.70120954  0.99263803  0.59640859     0.06100
H1900       H  0.73479329  0.99320645  0.58310588     0.09300
H1901       H  0.72771121  0.02120949  0.60037624     0.09300
H1902       H  0.77688312  0.89619126  0.64682884     0.09300
H1903       H  0.77558891  0.92415884  0.66462085     0.09300
H1904       H  0.80707846  0.92156464  0.64948960     0.06000
C1905       C  0.69985606  0.78575558  0.68591787    -0.19800
C1906       C  0.67312107  0.80001663  0.68185531    -0.06300
C1907       C  0.64746841  0.78286848  0.67842279     0.14500
C1908       C  0.64956154  0.75206267  0.67848315    -0.19800
C1909       C  0.67662705  0.73780529  0.68159016    -0.06300
C1910       C  0.70194352  0.75488753  0.68590744     0.14500
C1911       C  0.73110956  0.74088678  0.69073504    -0.23200
H1912       H  0.71938130  0.79887639  0.68876534     0.15800
H1913       H  0.63012185  0.73904958  0.67520477     0.15800
C1914       C  0.61817951  0.79670151  0.67359421    -0.23100
H1915       H  0.74775974  0.75752299  0.69506828     0.06100
H1916       H  0.74031884  0.72932347  0.67856744     0.09300
H1917       H  0.72792594  0.72505145  0.70236389     0.09300
H1918       H  0.62077539  0.81101529  0.66116362     0.09300
H1919       H  0.61001370  0.80990110  0.68539114     0.09300
H1920       H  0.60098049  0.77988714  0.67049401     0.06000
C1921       C  0.77472440  0.05498681  0.72073784    -0.19800
C1922       C  0.74570112  0.04717050  0.71576753    -0.06300
C1923       C  0.73324115  0.06012762  0.69966306     0.14500
C1924       C  0.74994113  0.08052339  0.68930966    -0.19800
C1925       C  0.77886090  0.08847446  0.69429208    -0.06300
C1926       C  0.79147621  0.07539938  0.71028972     0.14500
C1927       C  0.82226956  0.08302242  0.71674645    -0.23200
H1928       H  0.78437378  0.04522351  0.73303661     0.15800
H1929       H  0.74028187  0.09013584  0.67695586     0.15800
C1930       C  0.70261159  0.05243656  0.69287340    -0.23100
H1931       H  0.82776931  0.07172976  0.72996177     0.06100
H1932       H  0.82411483  0.10710364  0.71905030     0.09300
H1933       H  0.83884330  0.07603629  0.70631752     0.09300
H1934       H  0.68572331  0.05951713  0.70307683     0.09300
H1935       H  0.70085295  0.02835420  0.69054421     0.09300
H1936       H  0.69740998  0.06364199  0.67957921     0.06000
C1937       C  0.92345521  0.60981329  0.91831683    -0.19800
C1938       C  0.90909805  0.60756394  0.90119072    -0.06300
C1939       C  0.92649870  0.60334890  0.88506441     0.14500
C1940       C  0.95754666  0.60434058  0.88638625    -0.19800
C1941       C  0.97180239  0.60973060  0.90328858    -0.06300
C1942       C  0.95438620  0.61117336  0.91963153     0.14500
C1943       C  0.96768396  0.61549058  0.93853196    -0.23200
H1944       H  0.91038109  0.61219324  0.93077632     0.15800
H1945       H  0.97069875  0.60236619  0.87392567     0.15800
C1946       C  0.91291294  0.59881519  0.86628514    -0.23100
H1947       H  0.95057842  0.61530821  0.94961383     0.06100
H1948       H  0.97920900  0.63711514  0.93914447     0.09300
H1949       H  0.98338309  0.59740668  0.94162623     0.09300
H1950       H  0.90058349  0.61877117  0.86197920     0.09300
H1951       H  0.89780524  0.57943858  0.86671278     0.09300
H1952       H  0.92997274  0.59466948  0.85552351     0.06000
C1953       C  0.84909880  0.74188445  0.89462677    -0.19800
C1954       C  0.83039349  0.72723618  0.90726733    -0.06300
C1955       C  0.81417573  0.74385351  0.92027028     0.14500
C1956       C  0.81628925  0.77463787  0.91973218    -0.19800
C1957       C  0.83374548  0.78943703  0.90641752    -0.06300
C1958       C  0.85102956  0.77268516  0.89396690     0.14500
C1959       C  0.87140214  0.78670202  0.87980324    -0.23200
H1960       H  0.86183826  0.72911571  0.88485628     0.15800
H1961       H  0.80315132  0.78725823  0.92939385     0.15800
C1962       C  0.79343737  0.72965268  0.93415941    -0.23100
H1963       H  0.88420830  0.77000982  0.87203289     0.06100
H1964       H  0.88754236  0.80139522  0.88676617     0.09300
H1965       H  0.85835809  0.79938174  0.86953704     0.09300
H1966       H  0.80607167  0.71522443  0.94369543     0.09300
H1967       H  0.77629272  0.71655346  0.92688696     0.09300
H1968       H  0.78183318  0.74623438  0.94271873     0.06000
C1969       C  0.95977016  0.92485042  0.91841352    -0.19800
C1970       C  0.97581132  0.91784553  0.90235501    -0.06300
C1971       C  0.96022159  0.91196979  0.88581738     0.14500
C1972       C  0.92919116  0.91081544  0.88617828    -0.19800
C1973       C  0.91318313  0.91509717  0.90261741    -0.06300
C1974       C  0.92861226  0.92385099  0.91870054     0.14500
C1975       C  0.91269214  0.93222850  0.93623915    -0.23200
H1976       H  0.97154819  0.93001351  0.93083071     0.15800
H1977       H  0.91755434  0.90473564  0.87379777     0.15800
C1978       C  0.97583595  0.90488028  0.86792011    -0.23100
H1979       H  0.92821486  0.94091472  0.94675414     0.06100
H1980       H  0.90138787  0.91275135  0.94242835     0.09300
H1981       H  0.89625119  0.94969234  0.93318801     0.09300
H1982       H  0.98978050  0.88501492  0.86975142     0.09300
H1983       H  0.98978286  0.92388294  0.86346651     0.09300
H1984       H  0.95999980  0.90028416  0.85659468     0.06000
C1985       C  0.06976872  0.78099303  0.92211939    -0.19800
C1986       C  0.05384853  0.79643239  0.90854248    -0.06300
C1987       C  0.03659912  0.78027229  0.89574135     0.14500
C1988       C  0.03682964  0.74938085  0.89646819    -0.19800
C1989       C  0.05394825  0.73396634  0.90944220    -0.06300
C1990       C  0.07033997  0.75008647  0.92265446     0.14500
C1991       C  0.08974293  0.73515755  0.93677240    -0.23200
H1992       H  0.08296347  0.79319914  0.93197433     0.15800
H1993       H  0.02398660  0.73709445  0.88645787     0.15800
C1994       C  0.01788721  0.79510137  0.88120756    -0.23100
H1995       H  0.10179321  0.75131458  0.94545180     0.06100
H1996       H  0.10653051  0.72142835  0.92968904     0.09300
H1997       H  0.07600395  0.72121781  0.94615810     0.09300
H1998       H  0.03223005  0.80707502  0.87113937     0.09300
H1999       H  0.00226196  0.81060868  0.88784860     0.09300
H2000       H  0.00457500  0.77894690  0.87326145     0.06000
C2001       C  0.28249441  0.58477470  0.20765852    -0.19800
C2002       C  0.27648936  0.58490986  0.18863099    -0.06300
C2003       C  0.25765660  0.56303054  0.18124030     0.14500
C2004       C  0.24433128  0.54241549  0.19320258    -0.19800
C2005       C  0.24988053  0.54254518  0.21228683    -0.06300
C2006       C  0.26944203  0.56387528  0.21961099     0.14500
C2007       C  0.27594360  0.56542393  0.24000103    -0.23200
H2008       H  0.29726551  0.60134308  0.21323211     0.15800
H2009       H  0.22962325  0.52584369  0.18757020     0.15800
C2010       C  0.25246726  0.56038630  0.16072824    -0.23100
H2011       H  0.29075879  0.58425351  0.24330698     0.06100
H2012       H  0.28716221  0.54498490  0.24460274     0.09300
H2013       H  0.25500429  0.56820324  0.24788826     0.09300
H2014       H  0.27397967  0.55801983  0.15339572     0.09300
H2015       H  0.24078646  0.58012473  0.15544071     0.09300
H2016       H  0.23862403  0.54084087  0.15742640     0.06000
C2017       C  0.64953014  0.57104875  0.18521277    -0.19800
C2018       C  0.62044334  0.57914913  0.18974168    -0.06300
C2019       C  0.60668116  0.56570892  0.20539539     0.14500
C2020       C  0.62257163  0.54526063  0.21611267    -0.19800
C2021       C  0.65192963  0.53775567  0.21184868    -0.06300
C2022       C  0.66547340  0.55076889  0.19596065     0.14500
C2023       C  0.69664881  0.54358734  0.18995837    -0.23200
H2024       H  0.66012513  0.58087853  0.17317422     0.15800
H2025       H  0.61199118  0.53530768  0.22810805     0.15800
C2026       C  0.57523722  0.57238681  0.21101229    -0.23100
H2027       H  0.70281239  0.55480429  0.17677850     0.06100
H2028       H  0.69878918  0.51953733  0.18774982     0.09300
H2029       H  0.71264746  0.55098851  0.20058202     0.09300
H2030       H  0.55991248  0.56686769  0.19957014     0.09300
H2031       H  0.57322087  0.59601195  0.21459541     0.09300
H2032       H  0.56813751  0.55936249  0.22333237     0.06000
C2033       C  0.43169838  0.64178635  0.17261391    -0.19800
C2034       C  0.41764456  0.65841718  0.15881269    -0.06300
C2035       C  0.43499523  0.67598157  0.14664530     0.14500
C2036       C  0.46591251  0.67460745  0.14771580    -0.19800
C2037       C  0.48010350  0.65616321  0.16056186    -0.06300
C2038       C  0.46265922  0.64026320  0.17364608     0.14500
C2039       C  0.47608165  0.62073192  0.18830292    -0.23200
H2040       H  0.41837525  0.62874141  0.18215510     0.15800
H2041       H  0.47909206  0.68745872  0.13800872     0.15800
C2042       C  0.42133159  0.69639760  0.13255068    -0.23100
H2043       H  0.45891180  0.61016477  0.19722465     0.06100
H2044       H  0.49064401  0.63398144  0.19739492     0.09300
H2045       H  0.48896615  0.60285871  0.18173488     0.09300
H2046       H  0.40557153  0.71144987  0.13948778     0.09300
H2047       H  0.40969033  0.68354652  0.12178720     0.09300
H2048       H  0.43830606  0.71017669  0.12538443     0.06000
C2049       C  0.65225220  0.94852513  0.18802964    -0.19800
C2050       C  0.62262117  0.94239139  0.19265723    -0.06300
C2051       C  0.60945504  0.95782572  0.20753960     0.14500
C2052       C  0.62667882  0.97790545  0.21766171    -0.19800
C2053       C  0.65650888  0.98360451  0.21317645    -0.06300
C2054       C  0.66919304  0.96907795  0.19777465     0.14500
C2055       C  0.70027359  0.97535132  0.19099189    -0.23200
H2056       H  0.66236554  0.93733181  0.17645352     0.15800
H2057       H  0.61666377  0.98927431  0.22920512     0.15800
C2058       C  0.57727187  0.95397064  0.21272372    -0.23100
H2059       H  0.70552110  0.96321894  0.17811877     0.06100
H2060       H  0.71659404  0.96839961  0.20155609     0.09300
H2061       H  0.70287362  0.99920247  0.18785660     0.09300
H2062       H  0.57290410  0.93085189  0.21705904     0.09300
H2063       H  0.56308360  0.95986147  0.20076896     0.09300
H2064       H  0.57082494  0.96836118  0.22440257     0.06000
C2065       C  0.60736186  0.77854351  0.17172193    -0.19800
C2066       C  0.60697789  0.79395335  0.15482370    -0.06300
C2067       C  0.61104648  0.77798249  0.13823595     0.14500
C2068       C  0.61126181  0.74702586  0.13894535    -0.19800
C2069       C  0.60732454  0.73157153  0.15570551    -0.06300
C2070       C  0.60751416  0.74766564  0.17244081     0.14500
C2071       C  0.60705320  0.73283791  0.19117774    -0.23200
H2072       H  0.60574494  0.79069227  0.18451942     0.15800
H2073       H  0.61236603  0.73488537  0.12612750     0.15800
C2074       C  0.61353030  0.79298604  0.11961833    -0.23100
H2075       H  0.61020873  0.74890818  0.20251088     0.06100
H2076       H  0.62526687  0.71657747  0.19207335     0.09300
H2077       H  0.58540366  0.72180634  0.19364272     0.09300
H2078       H  0.63256755  0.80857414  0.11957846     0.09300
H2079       H  0.59277027  0.80493227  0.11645080     0.09300
H2080       H  0.61726768  0.77696803  0.10833061     0.06000
C2081       C  0.29387404  0.96390385  0.20462216    -0.19800
C2082       C  0.27623793  0.94752445  0.19235096    -0.06300
C2083       C  0.24510461  0.95096482  0.19300629     0.14500
C2084       C  0.23272111  0.97010262  0.20595457    -0.19800
C2085       C  0.25026473  0.98676276  0.21808366    -0.06300
C2086       C  0.28143636  0.98367956  0.21729960     0.14500
C2087       C  0.30191814  0.00122949  0.22945298    -0.23200
H2088       H  0.31773762  0.96166944  0.20409600     0.15800
H2089       H  0.20884831  0.97235343  0.20632620     0.15800
C2090       C  0.22443884  0.93492257  0.18014708    -0.23100
H2091       H  0.32554619  0.99594318  0.22682959     0.06100
H2092       H  0.29715609  0.99624252  0.24422073     0.09300
H2093       H  0.29904577  0.02511962  0.22668523     0.09300
H2094       H  0.22710529  0.91077639  0.18185814     0.09300
H2095       H  0.22911155  0.94158090  0.16561913     0.09300
H2096       H  0.20084095  0.94009276  0.18297086     0.06000
C2097       C  0.43066208  0.88117062  0.17282133    -0.19800
C2098       C  0.41665224  0.87778444  0.15563033    -0.06300
C2099       C  0.43413026  0.87099792  0.13991429     0.14500
C2100       C  0.46489266  0.86904084  0.14174087    -0.19800
C2101       C  0.47906170  0.87398126  0.15867936    -0.06300
C2102       C  0.46156316  0.87937285  0.17459606     0.14500
C2103       C  0.47496667  0.88316129  0.19349687    -0.23200
H2104       H  0.41739146  0.88579310  0.18497461     0.15800
H2105       H  0.47810753  0.86468017  0.12953137     0.15800
C2106       C  0.42107345  0.86662496  0.12095020    -0.23100
H2107       H  0.45772318  0.88529795  0.20439953     0.06100
H2108       H  0.48876506  0.90344027  0.19382099     0.09300
H2109       H  0.48865027  0.86368731  0.19701073     0.09300
H2110       H  0.40945431  0.88690016  0.11642536     0.09300
H2111       H  0.40550091  0.84762006  0.12119620     0.09300
H2112       H  0.43831479  0.86188990  0.11040153     0.06000
C2113       C  0.30095323  0.78571744  0.17147013    -0.19800
C2114       C  0.29532404  0.80063670  0.15478892    -0.06300
C2115       C  0.28752540  0.78403035  0.13903264     0.14500
C2116       C  0.28824288  0.75312358  0.14003880    -0.19800
C2117       C  0.29674328  0.73823417  0.15627561    -0.06300
C2118       C  0.30187086  0.75490101  0.17249260     0.14500
C2119       C  0.30931660  0.74088391  0.19087318    -0.23200
H2120       H  0.30612791  0.79835326  0.18371741     0.15800
H2121       H  0.28357358  0.74056561  0.12768935     0.15800
C2122       C  0.27990864  0.79844039  0.12084183    -0.23100
H2123       H  0.31102572  0.75742207  0.20205963     0.06100
H2124       H  0.33103706  0.72965998  0.19002247     0.09300
H2125       H  0.29168837  0.72493118  0.19493818     0.09300
H2126       H  0.29901428  0.81168317  0.11569298     0.09300
H2127       H  0.26028894  0.81277183  0.12262173     0.09300
H2128       H  0.27444328  0.78197179  0.11008713     0.06000
C2129       C  0.26968036  0.48128800  0.78657205    -0.19800
C2130       C  0.23990999  0.48868015  0.78948230    -0.06300
C2131       C  0.22474081  0.47640852  0.80500000     0.14500
C2132       C  0.23956810  0.45675816  0.81675196    -0.19800
C2133       C  0.26908308  0.44867339  0.81354823    -0.06300
C2134       C  0.28446127  0.46145391  0.79826710     0.14500
C2135       C  0.31647480  0.45474705  0.79407976    -0.23200
H2136       H  0.28145015  0.49080122  0.77486432     0.15800
H2137       H  0.22780001  0.44743665  0.82851631     0.15800
C2138       C  0.19307564  0.48397952  0.80963440    -0.23100
H2139       H  0.32485061  0.46741093  0.78192178     0.06100
H2140       H  0.31896961  0.43102682  0.79087606     0.09300
H2141       H  0.33050917  0.46068777  0.80606956     0.09300
H2142       H  0.17810504  0.47604457  0.79858814     0.09300
H2143       H  0.19087312  0.50816077  0.81126467     0.09300
H2144       H  0.18558912  0.47345481  0.82277128     0.06000
C2145       C  0.22795894  0.06988849  0.78822404    -0.19800
C2146       C  0.24460645  0.04689432  0.78051879    -0.06300
C2147       C  0.27519523  0.04520557  0.78453739     0.14500
C2148       C  0.28804530  0.06630690  0.79615716    -0.19800
C2149       C  0.27119056  0.08871373  0.80432585    -0.06300
C2150       C  0.24067118  0.09061756  0.80015043     0.14500
C2151       C  0.22125605  0.11438991  0.80801152    -0.23200
H2152       H  0.20454642  0.07145966  0.78511163     0.15800
H2153       H  0.31138411  0.06461541  0.79939769     0.15800
C2154       C  0.29432298  0.02066685  0.77738347    -0.23100
H2155       H  0.19840220  0.11332035  0.80242174     0.06100
H2156       H  0.23060899  0.13638892  0.80445702     0.09300
H2157       H  0.21954438  0.11183752  0.82324759     0.09300
H2158       H  0.29536392  0.02161688  0.76206019     0.09300
H2159       H  0.28514122  0.99907905  0.78199639     0.09300
H2160       H  0.31738121  0.02227608  0.78258406     0.06000
C2161       C  0.29246363  0.24733879  0.86486138    -0.19800
C2162       C  0.29430479  0.23476776  0.84721675    -0.06300
C2163       C  0.29264576  0.25334905  0.83145372     0.14500
C2164       C  0.29016249  0.28383217  0.83383447    -0.19800
C2165       C  0.29034460  0.29667818  0.85146762    -0.06300
C2166       C  0.29099339  0.27795831  0.86726169     0.14500
C2167       C  0.29126184  0.28973040  0.88669848    -0.23200
H2168       H  0.29375260  0.23314797  0.87697846     0.15800
H2169       H  0.28949382  0.29787473  0.82163691     0.15800
C2170       C  0.29372424  0.24152585  0.81202738    -0.23100
H2171       H  0.29113552  0.27175261  0.89720657     0.06100
H2172       H  0.27130647  0.30335610  0.88909832     0.09300
H2173       H  0.31160783  0.30303598  0.88894864     0.09300
H2174       H  0.27615453  0.22460478  0.81021766     0.09300
H2175       H  0.31577648  0.23187785  0.80917551     0.09300
H2176       H  0.29012896  0.25910639  0.80152225     0.06000
C2177       C  0.60548979  0.08160448  0.79202691    -0.19800
C2178       C  0.62000290  0.09032053  0.80832491    -0.06300
C2179       C  0.64879164  0.07926961  0.81179539     0.14500
C2180       C  0.66150704  0.05940598  0.79935484    -0.19800
C2181       C  0.64666009  0.04998850  0.78340550    -0.06300
C2182       C  0.61838350  0.06177243  0.77951707     0.14500
C2183       C  0.60184740  0.05414639  0.76212649    -0.23200
H2184       H  0.58358470  0.09015843  0.78907165     0.15800
H2185       H  0.68330964  0.05070539  0.80236736     0.15800
C2186       C  0.66650124  0.08783628  0.82857196    -0.23100
H2187       H  0.58077661  0.06651960  0.76095976     0.06100
H2188       H  0.59622985  0.03033501  0.76209650     0.09300
H2189       H  0.61565008  0.05975003  0.74983591     0.09300
H2190       H  0.65480064  0.08054300  0.84135048     0.09300
H2191       H  0.66996779  0.11205545  0.82868447     0.09300
H2192       H  0.68871424  0.07744701  0.82868653     0.06000
C2193       C  0.42797702  0.14034872  0.82665751    -0.19800
C2194       C  0.41277467  0.15533398  0.84067400    -0.06300
C2195       C  0.42923493  0.17149020  0.85382341     0.14500
C2196       C  0.46016886  0.16976849  0.85361264    -0.19800
C2197       C  0.47538344  0.15292160  0.84045937    -0.06300
C2198       C  0.45900567  0.13908345  0.82624008     0.14500
C2199       C  0.47366139  0.12274494  0.81064021    -0.23200
H2200       H  0.41547611  0.12865857  0.81621539     0.15800
H2201       H  0.47254611  0.18135793  0.86416197     0.15800
C2202       C  0.41472481  0.19088712  0.86804456    -0.23100
H2203       H  0.45727579  0.11446598  0.80048382     0.06100
H2204       H  0.48579377  0.10340920  0.81613056     0.09300
H2205       H  0.48912706  0.13771582  0.80309317     0.09300
H2206       H  0.40193876  0.17733401  0.87813629     0.09300
H2207       H  0.39992642  0.20690912  0.86107061     0.09300
H2208       H  0.43128411  0.20368620  0.87602809     0.06000
C2209       C  0.65881186  0.46473117  0.79125557    -0.19800
C2210       C  0.64225576  0.48254371  0.77913676    -0.06300
C2211       C  0.61097730  0.48004366  0.77949172     0.14500
C2212       C  0.59739384  0.45995995  0.79180889    -0.19800
C2213       C  0.61393519  0.44270172  0.80425158    -0.06300
C2214       C  0.64523215  0.44532479  0.80394813     0.14500
C2215       C  0.66479140  0.42841468  0.81708288    -0.23200
H2216       H  0.68269229  0.46645983  0.79118069     0.15800
H2217       H  0.57351646  0.45831952  0.79198596     0.15800
C2218       C  0.59145584  0.49873889  0.76735326    -0.23100
H2219       H  0.68864586  0.43328295  0.81471741     0.06100
H2220       H  0.66148743  0.40439067  0.81518717     0.09300
H2221       H  0.65959527  0.43457050  0.83156005     0.09300
H2222       H  0.59652122  0.49455350  0.75257692     0.09300
H2223       H  0.59498008  0.52238447  0.77051261     0.09300
H2224       H  0.56759274  0.49379807  0.76960703     0.06000
C2225       C  0.58766936  0.28445866  0.86525654    -0.19800
C2226       C  0.59240927  0.29850449  0.84810622    -0.06300
C2227       C  0.60050269  0.28132041  0.83269269     0.14500
C2228       C  0.60052772  0.25052111  0.83437102    -0.19800
C2229       C  0.59293279  0.23624698  0.85106653    -0.06300
C2230       C  0.58780250  0.25360866  0.86698759     0.14500
C2231       C  0.58128040  0.24019047  0.88571688    -0.23200
H2232       H  0.58216477  0.29757266  0.87718413     0.15800
H2233       H  0.60553319  0.23751040  0.82231525     0.15800
C2234       C  0.60933420  0.29506664  0.81442528    -0.23100
H2235       H  0.57835807  0.25724137  0.89648729     0.06100
H2236       H  0.59999069  0.22600278  0.89004582     0.09300
H2237       H  0.56050268  0.22704538  0.88521395     0.09300
H2238       H  0.62741462  0.31135005  0.81658490     0.09300
H2239       H  0.59008154  0.30597855  0.80790257     0.09300
H2240       H  0.61753846  0.27836195  0.80454326     0.06000
C2241       C  0.45300441  0.39008832  0.82731324    -0.19800
C2242       C  0.46885317  0.37468903  0.84089685    -0.06300
C2243       C  0.45311404  0.35752411  0.85413301     0.14500
C2244       C  0.42214819  0.35892761  0.85465557    -0.19800
C2245       C  0.40632611  0.37666780  0.84219623    -0.06300
C2246       C  0.42195338  0.39124216  0.82768597     0.14500
C2247       C  0.40651432  0.40873051  0.81279885    -0.23200
H2248       H  0.46503399  0.40249780  0.81680963     0.15800
H2249       H  0.41028281  0.34662115  0.86528134     0.15800
C2250       C  0.46855786  0.33741246  0.86765908    -0.23100
H2251       H  0.42238832  0.41792549  0.80246418     0.06100
H2252       H  0.39452942  0.42753510  0.81898676     0.09300
H2253       H  0.39079399  0.39429350  0.80527851     0.09300
H2254       H  0.48144298  0.35044281  0.87776128     0.09300
H2255       H  0.48346871  0.32229729  0.86007714     0.09300
H2256       H  0.45254618  0.32367469  0.87568513     0.06000
C2257       C  0.27384091  0.45329663  0.11781460    -0.19800
C2258       C  0.26304583  0.48154987  0.11360015    -0.06300
C2259       C  0.23520532  0.49003886  0.12092729     0.14500
C2260       C  0.21954491  0.47037805  0.13238738    -0.19800
C2261       C  0.23027084  0.44212769  0.13659928    -0.06300
C2262       C  0.25782204  0.43341500  0.12905727     0.14500
C2263       C  0.27042665  0.40319354  0.13239800    -0.23200
H2264       H  0.29497651  0.44654094  0.11217459     0.15800
H2265       H  0.19845632  0.47725156  0.13804229     0.15800
C2266       C  0.22135253  0.51953958  0.11680970    -0.23100
H2267       H  0.29174614  0.40009131  0.12496577     0.06100
H2268       H  0.25470589  0.38616740  0.12739593     0.09300
H2269       H  0.27468538  0.39987781  0.14736801     0.09300
H2270       H  0.21754614  0.52190156  0.10171659     0.09300
H2271       H  0.23593157  0.53756433  0.12174668     0.09300
H2272       H  0.19956506  0.52206507  0.12379255     0.06000
C2273       C  0.63304462  0.48930928  0.13009570    -0.19800
C2274       C  0.61603599  0.47533759  0.11652063    -0.06300
C2275       C  0.61749554  0.44439206  0.11477442     0.14500
C2276       C  0.63683265  0.42849227  0.12621685    -0.19800
C2277       C  0.65489336  0.44268746  0.13922913    -0.06300
C2278       C  0.65240909  0.47354298  0.14146518     0.14500
C2279       C  0.66966110  0.49020075  0.15586309    -0.23200
H2280       H  0.63145314  0.51300045  0.13168073     0.15800
H2281       H  0.63858820  0.40483927  0.12452488     0.15800
C2282       C  0.59985374  0.42811817  0.10042092    -0.23100
H2283       H  0.66312100  0.51372857  0.15642346     0.06100
H2284       H  0.69367376  0.48969898  0.15259558     0.09300
H2285       H  0.66550688  0.48036941  0.16974447     0.09300
H2286       H  0.60532212  0.43685786  0.08642896     0.09300
H2287       H  0.57581879  0.43070054  0.10317711     0.09300
H2288       H  0.60472344  0.40416853  0.10055373     0.06000
C2289       C  0.45911569  0.54549974  0.05811680    -0.19800
C2290       C  0.47285441  0.52241742  0.06775869    -0.06300
C2291       C  0.45508461  0.49905977  0.07482968     0.14500
C2292       C  0.42413572  0.50162465  0.07430019    -0.19800
C2293       C  0.41039612  0.52661832  0.06667178    -0.06300
C2294       C  0.42821995  0.54792604  0.05738894     0.14500
C2295       C  0.41531662  0.57383686  0.04711719    -0.23200
H2296       H  0.47260527  0.56277138  0.05191530     0.15800
H2297       H  0.41064905  0.48445392  0.08062375     0.15800
C2298       C  0.46823016  0.47144156  0.08301793    -0.23100
H2299       H  0.43267803  0.58712729  0.03994491     0.06100
H2300       H  0.40383861  0.58866361  0.05689888     0.09300
H2301       H  0.39964875  0.56592670  0.03643182     0.09300
H2302       H  0.47981480  0.47646665  0.09611621     0.09300
H2303       H  0.48390686  0.46154944  0.07298743     0.09300
H2304       H  0.45094177  0.45466157  0.08627038     0.06000
C2305       C  0.74496847  0.48114143  0.03760893    -0.19800
C2306       C  0.72155345  0.46458623  0.03007554    -0.06300
C2307       C  0.72077458  0.43375752  0.03311602     0.14500
C2308       C  0.74309638  0.42059653  0.04369836    -0.19800
C2309       C  0.76590548  0.43729841  0.05172966    -0.06300
C2310       C  0.76704726  0.46801403  0.04842007     0.14500
C2311       C  0.79144531  0.48722595  0.05597944    -0.23200
H2312       H  0.74592716  0.50466174  0.03518595     0.15800
H2313       H  0.74207634  0.39710353  0.04623720     0.15800
C2314       C  0.69613998  0.41449127  0.02592610    -0.23100
H2315       H  0.78965422  0.51034471  0.05101337     0.06100
H2316       H  0.81331603  0.47875791  0.05147013     0.09300
H2317       H  0.79024957  0.48764227  0.07129957     0.09300
H2318       H  0.69602478  0.41508983  0.01058570     0.09300
H2319       H  0.67452977  0.42215959  0.03140284     0.09300
H2320       H  0.69877572  0.39113682  0.03024870     0.06000
C2321       C  0.72400946  0.54793190  0.94807848    -0.19800
C2322       C  0.71566402  0.56273632  0.96427726    -0.06300
C2323       C  0.72806351  0.59079679  0.96781360     0.14500
C2324       C  0.74838444  0.60306638  0.95510095    -0.19800
C2325       C  0.75697528  0.58803357  0.93900517    -0.06300
C2326       C  0.74440982  0.56002541  0.93545959     0.14500
C2327       C  0.75171292  0.54273885  0.91832524    -0.23200
H2328       H  0.71439772  0.52656634  0.94516321     0.15800
H2329       H  0.75784770  0.62452783  0.95788713     0.15800
C2330       C  0.72073694  0.60772002  0.98506274    -0.23100
H2331       H  0.73892776  0.52180683  0.91765360     0.06100
H2332       H  0.77555624  0.53694732  0.91824134     0.09300
H2333       H  0.74624082  0.55588049  0.90580201     0.09300
H2334       H  0.72643943  0.59440745  0.99747390     0.09300
H2335       H  0.69681294  0.61315888  0.98529884     0.09300
H2336       H  0.73331676  0.62876836  0.98578086     0.06000
C2337       C  0.12731222  0.47183728  0.06216491    -0.19800
C2338       C  0.12352396  0.44146534  0.05953616    -0.06300
C2339       C  0.13971031  0.42748921  0.04523878     0.14500
C2340       C  0.15913955  0.44425284  0.03420358    -0.19800
C2341       C  0.16299874  0.47459544  0.03686484    -0.06300
C2342       C  0.14667584  0.48862744  0.05109300     0.14500
C2343       C  0.14929821  0.52115074  0.05498194    -0.23200
H2344       H  0.11503790  0.48264574  0.07304152     0.15800
H2345       H  0.17148331  0.43340807  0.02336308     0.15800
C2346       C  0.13714756  0.39496013  0.04141131    -0.23100
H2347       H  0.13491307  0.52791795  0.06667796     0.06100
H2348       H  0.14238245  0.53408092  0.04266395     0.09300
H2349       H  0.17245303  0.52676733  0.05874389     0.09300
H2350       H  0.11404670  0.38934305  0.03753907     0.09300
H2351       H  0.14386242  0.38209797  0.05380089     0.09300
H2352       H  0.15167281  0.38813715  0.02979384     0.06000
C2353       C  0.13815224  0.60961148  0.95247484    -0.19800
C2354       C  0.12019978  0.59159149  0.94141825    -0.06300
C2355       C  0.12348288  0.56066944  0.94256986     0.14500
C2356       C  0.14397388  0.54883130  0.95507918    -0.19800
C2357       C  0.16192782  0.56689389  0.96620614    -0.06300
C2358       C  0.15923775  0.59784507  0.96457342     0.14500
C2359       C  0.17873095  0.61888574  0.97508897    -0.23200
H2360       H  0.13618278  0.63333731  0.95134699     0.15800
H2361       H  0.14606833  0.52509606  0.95602836     0.15800
C2362       C  0.10545983  0.53987090  0.93091350    -0.23100
H2363       H  0.17390805  0.64222586  0.97159581     0.06100
H2364       H  0.20233076  0.61492189  0.97157637     0.09300
H2365       H  0.17507808  0.61601791  0.99017906     0.09300
H2366       H  0.11076840  0.54340347  0.91606205     0.09300
H2367       H  0.08148300  0.54350686  0.93338393     0.09300
H2368       H  0.11026026  0.51645721  0.93422789     0.06000
C2369       C  0.26493942  0.54560249  0.86843750    -0.19800
C2370       C  0.27660914  0.55851605  0.88441376    -0.06300
C2371       C  0.27214210  0.58880929  0.88762162     0.14500
C2372       C  0.25404780  0.60484681  0.87548877    -0.19800
C2373       C  0.24058831  0.59129192  0.86026219    -0.06300
C2374       C  0.24728286  0.56167325  0.85617238     0.14500
C2375       C  0.23645940  0.54696324  0.83879683    -0.23200
H2376       H  0.26921187  0.52260186  0.86572761     0.15800
H2377       H  0.24933469  0.62768301  0.87836851     0.15800
C2378       C  0.28505814  0.60398353  0.90421469    -0.23100
H2379       H  0.24590153  0.52458739  0.83720390     0.06100
H2380       H  0.24321910  0.56024950  0.82651202     0.09300
H2381       H  0.21202102  0.54452506  0.83912222     0.09300
H2382       H  0.30960409  0.60317870  0.90355241     0.09300
H2383       H  0.27716736  0.59298247  0.91710186     0.09300
H2384       H  0.27852846  0.62749513  0.90480218     0.06000
C2385       C  0.66180258  0.58674465  0.88341643    -0.19800
C2386       C  0.65071048  0.59467095  0.86598901    -0.06300
C2387       C  0.62198437  0.58537435  0.86089366     0.14500
C2388       C  0.60557262  0.56763833  0.87315140    -0.19800
C2389       C  0.61730177  0.55845264  0.89013278    -0.06300
C2390       C  0.64557525  0.56866196  0.89558390     0.14500
C2391       C  0.65853679  0.56082212  0.91416495    -0.23200
H2392       H  0.68399026  0.59428902  0.88740524     0.15800
H2393       H  0.58379078  0.55961015  0.86901608     0.15800
C2394       C  0.60925063  0.59248273  0.84216582    -0.23100
H2395       H  0.67999891  0.57231817  0.91651163     0.06100
H2396       H  0.66273126  0.53682718  0.91506691     0.09300
H2397       H  0.64304447  0.56732175  0.92534746     0.09300
H2398       H  0.62415674  0.58419422  0.83114460     0.09300
H2399       H  0.60657953  0.61664069  0.84060850     0.09300
H2400       H  0.58713395  0.58211711  0.84022927     0.06000
C2401       C  0.45689883  0.47210111  0.93661799    -0.19800
C2402       C  0.47263048  0.49846338  0.93344935    -0.06300
C2403       C  0.45686859  0.52537765  0.93304693     0.14500
C2404       C  0.42591231  0.52486304  0.93463846    -0.19800
C2405       C  0.41004086  0.49830533  0.93628670    -0.06300
C2406       C  0.42587821  0.47155577  0.93788980     0.14500
C2407       C  0.41050253  0.44211563  0.93992781    -0.23200
H2408       H  0.46882882  0.45148212  0.93719020     0.15800
H2409       H  0.41387939  0.54542427  0.93376003     0.15800
C2410       C  0.47212735  0.55480880  0.93066862    -0.23100
H2411       H  0.42650649  0.42367965  0.94074340     0.06100
H2412       H  0.39607345  0.43809279  0.92780392     0.09300
H2413       H  0.39709628  0.44163807  0.95283013     0.09300
H2414       H  0.48242390  0.55645398  0.91673826     0.09300
H2415       H  0.48923151  0.55759371  0.94150568     0.09300
H2416       H  0.45637052  0.57338916  0.93189352     0.06000
C2417       C  0.63447491  0.98900922  0.87002068    -0.19800
C2418       C  0.61316943  0.97525167  0.88132777    -0.06300
C2419       C  0.60791853  0.94465419  0.87928688     0.14500
C2420       C  0.62640293  0.92846426  0.86749370    -0.19800
C2421       C  0.64956218  0.94202854  0.85752199    -0.06300
C2422       C  0.65245584  0.97311877  0.85800662     0.14500
C2423       C  0.67402198  0.98989327  0.84579623    -0.23200
H2424       H  0.63757299  0.01304812  0.87080373     0.15800
H2425       H  0.62338627  0.90458800  0.86659309     0.15800
C2426       C  0.58364056  0.92880708  0.88977268    -0.23100
H2427       H  0.67090159  0.01412271  0.84678946     0.06100
H2428       H  0.67065954  0.98373963  0.83113105     0.09300
H2429       H  0.69712167  0.98527819  0.84999001     0.09300
H2430       H  0.56183941  0.93821963  0.88599411     0.09300
H2431       H  0.58723827  0.93092769  0.90487107     0.09300
H2432       H  0.58296049  0.90493835  0.88648422     0.06000
C2433       C  0.21906790  0.95194254  0.88007506    -0.19800
C2434       C  0.23255050  0.93552804  0.86607711    -0.06300
C2435       C  0.26377353  0.93533388  0.86462414     0.14500
C2436       C  0.28046837  0.95350370  0.87631344    -0.19800
C2437       C  0.26677573  0.97150982  0.88952508    -0.06300
C2438       C  0.23563421  0.96962016  0.89197468     0.14500
C2439       C  0.21946149  0.98569006  0.90714360    -0.23200
H2440       H  0.19511279  0.95118103  0.88159712     0.15800
H2441       H  0.30438726  0.95435127  0.87468155     0.15800
C2442       C  0.27954669  0.91705721  0.85039050    -0.23100
H2443       H  0.19566299  0.97936835  0.90784181     0.06100
H2444       H  0.22040796  0.00980007  0.90464541     0.09300
H2445       H  0.22941614  0.98024863  0.92075130     0.09300
H2446       H  0.27193917  0.92323528  0.83631837     0.09300
H2447       H  0.27498281  0.89334056  0.85299221     0.09300
H2448       H  0.30393032  0.92034432  0.85088719     0.06000
C2449       C  0.42834873  0.05180051  0.93883508    -0.19800
C2450       C  0.41325806  0.02661400  0.93263558    -0.06300
C2451       C  0.42987404  0.00100017  0.92864119     0.14500
C2452       C  0.46091729  0.00233682  0.92932421    -0.19800
C2453       C  0.47606008  0.02841740  0.93386365    -0.06300
C2454       C  0.45937934  0.05315606  0.93949459     0.14500
C2455       C  0.47373398  0.08151322  0.94558155    -0.23200
H2456       H  0.41579413  0.07123285  0.94248852     0.15800
H2457       H  0.47347607  0.98303861  0.92554865     0.15800
C2458       C  0.41552372  0.97228862  0.92318789    -0.23100
H2459       H  0.45710232  0.09812064  0.94980155     0.06100
H2460       H  0.48687987  0.09127369  0.93404540     0.09300
H2461       H  0.48819222  0.07726273  0.95767381     0.09300
H2462       H  0.40367231  0.97498310  0.90987972     0.09300
H2463       H  0.39987888  0.96488528  0.93418677     0.09300
H2464       H  0.43206350  0.95455061  0.92127257     0.06000
C2465       C  0.76295446  0.09863384  0.03720462    -0.19800
C2466       C  0.77052784  0.08560126  0.05426098    -0.06300
C2467       C  0.75805948  0.05782123  0.05899749     0.14500
C2468       C  0.73805334  0.04446348  0.04684342    -0.19800
C2469       C  0.72995551  0.05783082  0.03002546    -0.06300
C2470       C  0.74295734  0.08516305  0.02503051     0.14500
C2471       C  0.73658436  0.10001198  0.00678482    -0.23200
H2472       H  0.77251640  0.11975498  0.03337370     0.15800
H2473       H  0.72831856  0.02347316  0.05068784     0.15800
C2474       C  0.76556478  0.04172523  0.07668118    -0.23100
H2475       H  0.74990738  0.12045509  0.00485244     0.06100
H2476       H  0.71288880  0.10620969  0.00607776     0.09300
H2477       H  0.74208616  0.08493561  0.99527225     0.09300
H2478       H  0.75807293  0.05461864  0.08878690     0.09300
H2479       H  0.78982100  0.03802908  0.07739015     0.09300
H2480       H  0.75452668  0.01983911  0.07758652     0.06000
C2481       C  0.74990280  0.97251586  0.95821732    -0.19800
C2482       C  0.72649662  0.95642739  0.96630925    -0.06300
C2483       C  0.72463643  0.92572220  0.96325453     0.14500
C2484       C  0.74572574  0.91230665  0.95175478    -0.19800
C2485       C  0.76831799  0.92885891  0.94305925    -0.06300
C2486       C  0.77084135  0.95927071  0.94672789     0.14500
C2487       C  0.79584633  0.97784078  0.93898332    -0.23200
H2488       H  0.75184466  0.99609021  0.96085451     0.15800
H2489       H  0.74392115  0.88906545  0.94902436     0.15800
C2490       C  0.70002461  0.90706495  0.97136387    -0.23100
H2491       H  0.79548620  0.00060287  0.94451239     0.06100
H2492       H  0.79403234  0.97962727  0.92373559     0.09300
H2493       H  0.81741825  0.96791375  0.94276289     0.09300
H2494       H  0.67825892  0.91567476  0.96679149     0.09300
H2495       H  0.70122276  0.90724851  0.98668664     0.09300
H2496       H  0.70153414  0.88378216  0.96690573     0.06000
C2497       C  0.22365206  0.06699514  0.12734793    -0.19800
C2498       C  0.23677038  0.08991629  0.13734185    -0.06300
C2499       C  0.26721326  0.09623418  0.13456484     0.14500
C2500       C  0.28348910  0.07945036  0.12182304    -0.19800
C2501       C  0.27031021  0.05632978  0.11187249    -0.06300
C2502       C  0.23974231  0.05013228  0.11475801     0.14500
C2503       C  0.22342573  0.02581626  0.10486405    -0.23200
H2504       H  0.20029631  0.06219314  0.12933510     0.15800
H2505       H  0.30683729  0.08419980  0.11984867     0.15800
C2506       C  0.28299530  0.11985976  0.14530417    -0.23100
H2507       H  0.19960334  0.02482882  0.10874199     0.06100
H2508       H  0.23308997  0.00414554  0.10854905     0.09300
H2509       H  0.22458255  0.02955238  0.08969177     0.09300
H2510       H  0.28064555  0.11541864  0.16036152     0.09300
H2511       H  0.27361543  0.14174952  0.14188535     0.09300
H2512       H  0.30702772  0.12070991  0.14198335     0.06000
C2513       C  0.64693313  0.09904937  0.12360349    -0.19800
C2514       C  0.66308930  0.08581393  0.13798492    -0.06300
C2515       C  0.65950998  0.05521452  0.14141600     0.14500
C2516       C  0.64137684  0.03859675  0.12974246    -0.19800
C2517       C  0.62624112  0.05157412  0.11491290    -0.06300
C2518       C  0.62849507  0.08233322  0.11203226     0.14500
C2519       C  0.61259204  0.09747857  0.09639041    -0.23200
H2520       H  0.64940761  0.12247743  0.12104453     0.15800
H2521       H  0.63904998  0.01511834  0.13219374     0.15800
C2522       C  0.67409282  0.03977304  0.15751096    -0.23100
H2523       H  0.61786042  0.12138642  0.09574930     0.06100
H2524       H  0.58829476  0.09514240  0.09831509     0.09300
H2525       H  0.61924168  0.08761206  0.08301274     0.09300
H2526       H  0.66832331  0.05102397  0.17060865     0.09300
H2527       H  0.69847468  0.03958077  0.15560729     0.09300
H2528       H  0.66669995  0.01647057  0.15883920     0.06000
C2529       C  0.43368818  0.97588055  0.06361444    -0.19800
C2530       C  0.41996554  0.00297721  0.06719195    -0.06300
C2531       C  0.43811607  0.02812814  0.07000542     0.14500
C2532       C  0.46905912  0.02494991  0.07033431    -0.19800
C2533       C  0.48264052  0.99742823  0.06801867    -0.06300
C2534       C  0.46456911  0.97265764  0.06404917     0.14500
C2535       C  0.47721090  0.94241899  0.06094214    -0.23200
H2536       H  0.42007151  0.95654900  0.06116692     0.15800
H2537       H  0.48275159  0.04413868  0.07297083     0.15800
C2538       C  0.42540748  0.05837503  0.07291545    -0.23100
H2539       H  0.45965492  0.92580385  0.05818091     0.06100
H2540       H  0.48937465  0.93498895  0.07342354     0.09300
H2541       H  0.49227127  0.94289005  0.04877175     0.09300
H2542       H  0.41248264  0.05884280  0.08599067     0.09300
H2543       H  0.41104616  0.06441006  0.06107248     0.09300
H2544       H  0.44301246  0.07546778  0.07394733     0.06000
C2545       C  0.15864959  0.09196848  0.03043342    -0.19800
C2546       C  0.16766554  0.06342512  0.03528466    -0.06300
C2547       C  0.15640287  0.05048296  0.05183388     0.14500
C2548       C  0.13657923  0.06639427  0.06283186    -0.19800
C2549       C  0.12771505  0.09504430  0.05807940    -0.06300
C2550       C  0.13897350  0.10799141  0.04152598     0.14500
C2551       C  0.13071351  0.13862507  0.03529627    -0.23200
H2552       H  0.16712901  0.10194794  0.01778589     0.15800
H2553       H  0.12825715  0.05635257  0.07550568     0.15800
C2554       C  0.16558534  0.02031533  0.05847573    -0.23100
H2555       H  0.14129894  0.14469154  0.02189300     0.06100
H2556       H  0.13818821  0.15496649  0.04563687     0.09300
H2557       H  0.10637758  0.14004089  0.03341265     0.09300
H2558       H  0.19001657  0.01954261  0.06004056     0.09300
H2559       H  0.15813861  0.00333664  0.04854789     0.09300
H2560       H  0.15562700  0.01460329  0.07212553     0.06000
C2561       C  0.16190551  0.94000215  0.96870533    -0.19800
C2562       C  0.16873144  0.96961421  0.96478982    -0.06300
C2563       C  0.15541989  0.98319549  0.94915024     0.14500
C2564       C  0.13511488  0.96717277  0.93851446    -0.19800
C2565       C  0.12773790  0.93776711  0.94265373    -0.06300
C2566       C  0.14190186  0.92382939  0.95785650     0.14500
C2567       C  0.13662457  0.89188650  0.96274662    -0.23200
H2568       H  0.17231834  0.92928796  0.98044746     0.15800
H2569       H  0.12491879  0.97789190  0.92669634     0.15800
C2570       C  0.16256028  0.01437251  0.94317505    -0.23100
H2571       H  0.15006021  0.88475925  0.97479214     0.06100
H2572       H  0.14288751  0.87780159  0.95089392     0.09300
H2573       H  0.11299027  0.88826371  0.96642234     0.09300
H2574       H  0.18670734  0.01672718  0.94054632     0.09300
H2575       H  0.15537951  0.03004715  0.95397416     0.09300
H2576       H  0.15101247  0.02060272  0.93020120     0.06000
loop_ 
_geom_bond_atom_site_label_1 
_geom_bond_atom_site_label_2 
_geom_bond_distance 
_geom_bond_site_symmetry_2 
_ccdc_geom_bond_type 
O1            C4   1.273       .  A
O1           Cd6   2.474   1_554  S
C2           O11   1.265       .  A
C2            O7   1.272       .  A
C2           C56   1.460       .  S
O3            C9   1.272   1_565  A
O3           Cd6   2.473   1_564  S
C4           O12   1.264       .  A
C4         C2546   1.489       .  S
C5           O10   1.273       .  A
C5            O8   1.264   1_565  A
C5         C2562   1.493       .  S
Cd6          O13   2.407   1_556  S
Cd6          O12   2.424   1_556  S
Cd6          O11   2.384       .  S
Cd6           O7   2.482       .  S
Cd6          O10   2.484   1_545  S
Cd6           O8   2.412       .  S
C9           O13   1.265       .  A
C9           C28   1.462       .  S
O14          C17   1.267       .  A
O14         Cd19   2.503       .  S
C15          O24   1.263       .  A
C15          O20   1.269       .  A
C15         C225   1.464       .  S
O16          C22   1.264       .  A
O16         Cd19   2.434   1_545  S
C17          O25   1.263   1_565  A
C17          C43   1.464       .  S
C18          O23   1.267   1_565  A
C18          O21   1.266       .  A
C18        C2533   1.491       .  S
Cd19         O26   2.487   1_565  S
Cd19         O25   2.422   1_565  S
Cd19         O24   2.421       .  S
Cd19         O20   2.496       .  S
Cd19         O23   2.457   1_565  S
Cd19         O21   2.465       .  S
C22          O26   1.266       .  A
C22        C2517   1.480       .  S
O27          C30   1.268       .  A
O27         Cd32   2.505       .  S
C28          O37   1.266       .  A
C28          O33   1.267   1_545  A
O29          C35   1.269       .  A
O29         Cd32   2.499   1_545  S
C30          O38   1.263       .  A
C30         C210   1.464       .  S
C31          O36   1.267       .  A
C31          O34   1.267   1_545  A
C31        C2530   1.493       .  S
Cd32         O39   2.411   1_565  S
Cd32         O38   2.403       .  S
Cd32         O37   2.428   1_565  S
Cd32         O33   2.474       .  S
Cd32         O36   2.476   1_565  S
Cd32         O34   2.445       .  S
C35          O39   1.261       .  A
C35        C2501   1.491       .  S
O40          C43   1.269       .  A
O40         Cd45   2.488   1_564  S
C41          O50   1.265   1_565  A
C41          O46   1.270       .  A
C41        C2482   1.482       .  S
O42          C48   1.270       .  A
O42         Cd45   2.483       .  S
C43          O51   1.265   1_565  A
C44          O49   1.270       .  A
C44          O47   1.264       .  A
C44        C2469   1.486       .  S
Cd45         O52   2.417   1_545  S
Cd45         O51   2.411   1_556  S
Cd45         O50   2.405       .  S
Cd45         O46   2.476   1_545  S
Cd45         O49   2.491   1_556  S
Cd45         O47   2.413   1_556  S
C48          O52   1.265   1_545  A
C48          C69   1.464       .  S
O53          C56   1.268       .  A
O53         Cd58   2.493       .  S
C54          O63   1.263       .  A
C54          O59   1.267       .  A
C54         C186   1.463       .  S
O55          C61   1.265       .  A
O55         Cd58   2.455       .  S
C56          O64   1.263       .  A
C57          O62   1.267       .  A
C57          O60   1.261   1_565  A
C57        C2437   1.482       .  S
Cd58         O65   2.453       .  S
Cd58         O64   2.401       .  S
Cd58         O63   2.426       .  S
Cd58         O59   2.493       .  S
Cd58         O62   2.484   1_545  S
Cd58         O60   2.418       .  S
C61          O65   1.268       .  A
C61        C2450   1.490       .  S
O66          C69   1.267       .  A
O66         Cd71   2.488       .  S
C67          O76   1.262       .  A
C67          O72   1.268       .  A
C67         C171   1.460       .  S
O68          C74   1.266       .  A
O68         Cd71   2.483   1_565  S
C69          O77   1.264       .  A
C70          O75   1.266       .  A
C70          O73   1.266       .  A
C70        C2453   1.489       .  S
Cd71         O78   2.413       .  S
Cd71         O77   2.430       .  S
Cd71         O76   2.406       .  S
Cd71         O72   2.492       .  S
Cd71         O75   2.444       .  S
Cd71         O73   2.462       .  S
C74          O78   1.264   1_565  A
C74        C2418   1.483       .  S
O79          C82   1.269       .  A
O79         Cd84   2.485       .  S
C80          O89   1.262       .  A
C80          O85   1.269       .  A
C80         C158   1.461       .  S
O81          C87   1.264       .  A
O81         Cd84   2.438       .  S
C82          O90   1.264       .  A
C82         C122   1.461       .  S
C83          O88   1.264       .  A
C83          O86   1.267       .  A
C83        C2389   1.472       .  S
Cd84         O91   2.467       .  S
Cd84         O90   2.403       .  S
Cd84         O89   2.414       .  S
Cd84         O85   2.490       .  S
Cd84         O88   2.440       .  S
Cd84         O86   2.449       .  S
C87          O91   1.267       .  A
C87        C2402   1.487       .  S
O92          C95   1.268       .  A
O92         Cd97   2.473       .  S
C93         O102   1.262       .  A
C93          O98   1.265       .  A
C93         C106   1.453       .  S
O94         C100   1.267       .  A
O94         Cd97   2.441       .  S
C95         O103   1.264       .  A
C95         C197   1.459       .  S
C96         O101   1.267       .  A
C96          O99   1.262       .  A
C96        C2370   1.474       .  S
Cd97        O104   2.446       .  S
Cd97        O103   2.408       .  S
Cd97        O102   2.401       .  S
Cd97         O98   2.473       .  S
Cd97        O101   2.483       .  S
Cd97         O99   2.415       .  S
C100        O104   1.265       .  A
C100       C2405   1.484       .  S
O105        C108   1.272       .  A
O105       Cd110   2.447       .  S
C106        O115   1.266       .  A
C106        O111   1.271       .  A
O107        C113   1.271       .  A
O107       Cd110   2.455   1_556  S
C108        O116   1.264       .  A
C108       C2341   1.484       .  S
C109        O114   1.271       .  A
C109        O112   1.265       .  A
C109        C147   1.459       .  S
Cd110       O117   2.408   1_554  S
Cd110       O116   2.396       .  S
Cd110       O115   2.375   1_554  S
Cd110       O111   2.454   1_554  S
Cd110       O114   2.474       .  S
Cd110       O112   2.395       .  S
C113        O117   1.266       .  A
C113       C2357   1.488       .  S
O118        C121   1.270       .  A
O118       Cd123   2.482   1_554  S
C119        O128   1.264       .  A
C119        O124   1.272       .  A
C119       C2322   1.486       .  S
O120        C126   1.270       .  A
O120       Cd123   2.458   1_554  S
C121        O129   1.265       .  A
C121        C134   1.462       .  S
C122        O127   1.269       .  A
C122        O125   1.265       .  A
Cd123       O130   2.421   1_556  S
Cd123       O129   2.410   1_556  S
Cd123       O128   2.396       .  S
Cd123       O124   2.490       .  S
Cd123       O127   2.481       .  S
Cd123       O125   2.405       .  S
C126        O130   1.266       .  A
C126       C2306   1.486       .  S
O131        C134   1.267       .  A
O131       Cd136   2.486       .  S
C132        O141   1.264       .  A
C132        O137   1.267       .  A
C132        C238   1.465       .  S
O133        C139   1.264       .  A
O133       Cd136   2.445       .  S
C134        O142   1.264       .  A
C135        O140   1.266       .  A
C135        O138   1.263       .  A
C135       C2274   1.479       .  S
Cd136       O143   2.450       .  S
Cd136       O142   2.418       .  S
Cd136       O141   2.430       .  S
Cd136       O137   2.496       .  S
Cd136       O140   2.482       .  S
Cd136       O138   2.419       .  S
C139        O143   1.267       .  A
C139       C2290   1.485       .  S
O144        C147   1.266       .  A
O144       Cd149   2.481       .  S
C145        O154   1.262       .  A
C145        O150   1.267       .  A
C145        C249   1.461       .  S
O146        C152   1.266       .  A
O146       Cd149   2.474       .  S
C147        O155   1.264       .  A
C148        O153   1.267       .  A
C148        O151   1.266       .  A
C148       C2293   1.488       .  S
Cd149       O156   2.434       .  S
Cd149       O155   2.413       .  S
Cd149       O154   2.407       .  S
Cd149       O150   2.499       .  S
Cd149       O153   2.452       .  S
Cd149       O151   2.442       .  S
C152        O156   1.262       .  A
C152       C2258   1.488       .  S
O157        C160   1.265       .  A
O157       Cd162   2.461       .  S
C158        O167   1.263       .  A
C158        O163   1.265       .  A
O159        C165   1.266       .  A
O159       Cd162   2.457       .  S
C160        O168   1.265       .  A
C160       C2226   1.484       .  S
C161        O166   1.266       .  A
C161        O164   1.261       .  A
C161       C2242   1.481       .  S
Cd162       O169   2.469       .  S
Cd162       O168   2.450       .  S
Cd162       O167   2.430       .  S
Cd162       O163   2.483       .  S
Cd162       O166   2.489       .  S
Cd162       O164   2.432       .  S
C165        O169   1.266       .  A
C165       C2213   1.493       .  S
O170        C173   1.264       .  A
O170       Cd175   2.476       .  S
C171        O180   1.262       .  A
C171        O176   1.266       .  A
O172        C178   1.264       .  A
O172       Cd175   2.459       .  S
C173        O181   1.266       .  A
C173       C2229   1.490       .  S
C174        O179   1.266       .  A
C174        O177   1.266       .  A
C174       C2178   1.496       .  S
Cd175       O182   2.435       .  S
Cd175       O181   2.456       .  S
Cd175       O180   2.417       .  S
Cd175       O176   2.497       .  S
Cd175       O179   2.477       .  S
Cd175       O177   2.467       .  S
C178        O182   1.265       .  A
C178       C2197   1.486       .  S
O183        C186   1.267       .  A
O183       Cd188   2.500       .  S
C184        O193   1.263       .  A
C184        O189   1.267       .  A
C184       C2162   1.484       .  S
O185        C191   1.267       .  A
O185       Cd188   2.454       .  S
C186        O194   1.262       .  A
C187        O192   1.263       .  A
C187        O190   1.265       .  A
C187       C2149   1.486       .  S
Cd188       O195   2.420       .  S
Cd188       O194   2.426       .  S
Cd188       O193   2.442       .  S
Cd188       O189   2.468       .  S
Cd188       O192   2.450       .  S
Cd188       O190   2.480       .  S
C191        O195   1.264       .  A
C191       C2194   1.482       .  S
O196        C199   1.265       .  A
O196       Cd201   2.475       .  S
C197        O206   1.262       .  A
C197        O202   1.267       .  A
O198        C204   1.264       .  A
O198       Cd201   2.434       .  S
C199        O207   1.264       .  A
C199       C2165   1.489       .  S
C200        O205   1.262       .  A
C200        O203   1.268       .  A
C200       C2133   1.489       .  S
Cd201       O208   2.445       .  S
Cd201       O207   2.435       .  S
Cd201       O206   2.414       .  S
Cd201       O202   2.486       .  S
Cd201       O205   2.435       .  S
Cd201       O203   2.477       .  S
C204        O208   1.267       .  A
C204       C2245   1.485       .  S
O209        C212   1.267       .  A
O209       Cd214   2.492       .  S
C210        O219   1.261       .  A
C210        O215   1.268       .  A
O211        C217   1.264       .  A
O211       Cd214   2.455       .  S
C212        O220   1.264       .  A
C212       C2114   1.487       .  S
C213        O218   1.267       .  A
C213        O216   1.264       .  A
C213       C2098   1.485       .  S
Cd214       O221   2.458       .  S
Cd214       O220   2.429       .  S
Cd214       O219   2.412       .  S
Cd214       O215   2.515       .  S
Cd214       O218   2.457       .  S
Cd214       O216   2.422       .  S
C217        O221   1.265       .  A
C217       C2082   1.489       .  S
O222        C225   1.266       .  A
O222       Cd227   2.497       .  S
C223        O232   1.266       .  A
C223        O228   1.264       .  A
C223       C2066   1.490       .  S
O224        C230   1.264       .  A
O224       Cd227   2.478       .  S
C225        O233   1.262       .  A
C226        O231   1.264       .  A
C226        O229   1.266       .  A
C226       C2101   1.485       .  S
Cd227       O234   2.436       .  S
Cd227       O233   2.432       .  S
Cd227       O232   2.458       .  S
Cd227       O228   2.474       .  S
Cd227       O231   2.463       .  S
Cd227       O229   2.437       .  S
C230        O234   1.265       .  A
C230       C2050   1.489       .  S
O235        C238   1.268       .  A
O235       Cd240   2.503       .  S
C236        O245   1.262       .  A
C236        O241   1.267       .  A
C236       C2069   1.491       .  S
O237        C243   1.265       .  A
O237       Cd240   2.452       .  S
C238        O246   1.262       .  A
C239        O244   1.263       .  A
C239        O242   1.267       .  A
C239       C2018   1.494       .  S
Cd240       O247   2.443       .  S
Cd240       O246   2.425       .  S
Cd240       O245   2.445       .  S
Cd240       O241   2.497       .  S
Cd240       O244   2.458       .  S
Cd240       O242   2.479       .  S
C243        O247   1.266       .  A
C243       C2037   1.485       .  S
O248        C251   1.267       .  A
O248       Cd253   2.480       .  S
C249        O258   1.263       .  A
C249        O254   1.268       .  A
O250        C256   1.266       .  A
O250       Cd253   2.449       .  S
C251        O259   1.261       .  A
C251       C2117   1.490       .  S
C252        O257   1.263       .  A
C252        O255   1.266       .  A
C252       C2002   1.476       .  S
Cd253       O260   2.423       .  S
Cd253       O259   2.433       .  S
Cd253       O258   2.407       .  S
Cd253       O254   2.497       .  S
Cd253       O257   2.448       .  S
Cd253       O255   2.458       .  S
C256        O260   1.264       .  A
C256       C2034   1.478       .  S
O261        C264   1.263       .  A
O261       Cd266   2.443       .  S
C262        O271   1.263       .  A
C262        O267   1.266       .  A
C262        C405   1.461       .  S
O263        C269   1.263       .  A
O263       Cd266   2.471       .  S
C264        O272   1.266       .  A
C264       C1970   1.483   1_455  S
C265        O270   1.267       .  A
C265        O268   1.263       .  A
C265       C1986   1.488       .  S
Cd266       O273   2.473       .  S
Cd266       O272   2.474       .  S
Cd266       O271   2.408       .  S
Cd266       O267   2.499       .  S
Cd266       O270   2.477       .  S
Cd266       O268   2.451       .  S
C269        O273   1.267       .  A
C269       C2565   1.494       .  S
O274        C277   1.262       .  A
O274       Cd279   2.437       .  S
C275        O284   1.264       .  A
C275        O280   1.266       .  A
C275       C1973   1.486       .  S
O276        C282   1.265       .  A
O276       Cd279   2.458       .  S
C277        O285   1.266       .  A
C277        C366   1.466       .  S
C278        O283   1.265       .  A
C278        O281   1.264       .  A
C278       C1957   1.484       .  S
Cd279       O286   2.440       .  S
Cd279       O285   2.503       .  S
Cd279       O284   2.460       .  S
Cd279       O280   2.462       .  S
Cd279       O283   2.445       .  S
Cd279       O281   2.450       .  S
C282        O286   1.265       .  A
C282       C2485   1.479       .  S
O287        C290   1.267       .  A
O287       Cd292   2.498       .  S
C288        O297   1.265       .  A
C288        O293   1.265       .  A
C288       C1938   1.489       .  S
O289        C295   1.264       .  A
O289       Cd292   2.450       .  S
C290        O298   1.261       .  A
C290        C379   1.457       .  S
C291        O296   1.263       .  A
C291        O294   1.266       .  A
C291       C2325   1.487       .  S
Cd292       O299   2.435       .  S
Cd292       O298   2.392       .  S
Cd292       O297   2.438       .  S
Cd292       O293   2.470       .  S
Cd292       O296   2.447       .  S
Cd292       O294   2.466       .  S
C295        O299   1.265       .  A
C295       C1954   1.479       .  S
O300        C303   1.266       .  A
O300       Cd305   2.479       .  S
C301        O310   1.263       .  A
C301        O306   1.268       .  A
C301        C418   1.463       .  S
O302        C308   1.264       .  A
O302       Cd305   2.473       .  S
C303        O311   1.262       .  A
C303       C1941   1.490   1_455  S
C304        O309   1.265       .  A
C304        O307   1.266       .  A
C304       C2354   1.484       .  S
Cd305       O312   2.457       .  S
Cd305       O311   2.442       .  S
Cd305       O310   2.417       .  S
Cd305       O306   2.495       .  S
Cd305       O309   2.430       .  S
Cd305       O307   2.472       .  S
C308        O312   1.265       .  A
C308       C1989   1.486       .  S
O313        C316   1.271       .  A
O313       Cd318   2.497   1_545  S
C314        O323   1.265       .  A
C314        O319   1.271       .  A
C314        C327   1.465       .  S
O315        C321   1.272       .  A
O315       Cd318   2.490   1_545  S
C316        O324   1.266       .  A
C316       C2181   1.491       .  S
C317        O322   1.270       .  A
C317        O320   1.265       .  A
C317        C368   1.466       .  S
Cd318       O325   2.409   1_565  S
Cd318       O324   2.423   1_565  S
Cd318       O323   2.408       .  S
Cd318       O319   2.493       .  S
Cd318       O322   2.495       .  S
Cd318       O320   2.415       .  S
C321        O325   1.263       .  A
C321       C1922   1.490       .  S
O326        C329   1.268       .  A
O326       Cd331   2.490       .  S
C327        O336   1.262       .  A
C327        O332   1.266       .  A
O328        C334   1.267       .  A
O328       Cd331   2.461       .  S
C329        O337   1.265       .  A
C329        C485   1.465       .  S
C330        O335   1.266       .  A
C330        O333   1.263       .  A
C330       C1890   1.489       .  S
Cd331       O338   2.458       .  S
Cd331       O337   2.429       .  S
Cd331       O336   2.426       .  S
Cd331       O332   2.504       .  S
Cd331       O335   2.508       .  S
Cd331       O333   2.429       .  S
C334        O338   1.266       .  A
C334       C1906   1.482       .  S
O339        C342   1.268       .  A
O339       Cd344   2.487       .  S
C340        O349   1.265       .  A
C340        O345   1.268       .  A
C340        C360   1.466       .  S
O341        C347   1.270       .  A
O341       Cd344   2.496       .  S
C342        O350   1.264       .  A
C342        C470   1.462       .  S
C343        O348   1.267       .  A
C343        O346   1.266       .  A
C343       C1909   1.483       .  S
Cd344       O351   2.400       .  S
Cd344       O350   2.416       .  S
Cd344       O349   2.430       .  S
Cd344       O345   2.487       .  S
Cd344       O348   2.465       .  S
Cd344       O346   2.450       .  S
C347        O351   1.262       .  A
C347       C1874   1.482       .  S
O352        C355   1.272       .  A
O352       Cd357   2.473       .  S
C353        O362   1.264       .  A
C353        O358   1.271       .  A
C353        C381   1.465       .  S
O354        C360   1.270       .  A
O354       Cd357   2.494       .  S
C355        O363   1.264       .  A
C355       C1858   1.486       .  S
C356        O361   1.272       .  A
C356        O359   1.266       .  A
C356       C2210   1.493       .  S
Cd357       O364   2.424       .  S
Cd357       O363   2.414       .  S
Cd357       O362   2.406       .  S
Cd357       O358   2.496       .  S
Cd357       O361   2.477       .  S
Cd357       O359   2.414       .  S
C360        O364   1.265       .  A
O365        C368   1.268       .  A
O365       Cd370   2.500       .  S
C366        O375   1.264       .  A
C366        O371   1.268       .  A
O367        C373   1.261       .  A
O367       Cd370   2.410       .  S
C368        O376   1.263       .  A
C369        O374   1.267       .  A
C369        O372   1.267       .  A
C369       C1842   1.494       .  S
Cd370       O377   2.494       .  S
Cd370       O376   2.423       .  S
Cd370       O375   2.429       .  S
Cd370       O371   2.498       .  S
Cd370       O374   2.456       .  S
Cd370       O372   2.473       .  S
C373        O377   1.268       .  A
C373       C2421   1.482       .  S
O378        C381   1.266       .  A
O378       Cd383   2.510       .  S
C379        O388   1.263       .  A
C379        O384   1.269       .  A
O380        C386   1.264       .  A
O380       Cd383   2.473       .  S
C381        O389   1.262       .  A
C382        O387   1.267       .  A
C382        O385   1.263       .  A
C382       C2386   1.474       .  S
Cd383       O390   2.466       .  S
Cd383       O389   2.429       .  S
Cd383       O388   2.383       .  S
Cd383       O384   2.490       .  S
Cd383       O387   2.469       .  S
Cd383       O385   2.431       .  S
C386        O390   1.266       .  A
C386       C1845   1.494       .  S
O391        C394   1.271       .  A
O391       Cd396   2.480   1_545  S
C392        O401   1.265       .  A
C392        O397   1.271       .  A
C392        C446   1.462       .  S
O393        C399   1.271       .  A
O393       Cd396   2.485       .  S
C394        O402   1.266       .  A
C394       C2146   1.488       .  S
C395        O400   1.272       .  A
C395        O398   1.264       .  A
C395       C1826   1.486       .  S
Cd396       O403   2.396       .  S
Cd396       O402   2.418   1_565  S
Cd396       O401   2.410       .  S
Cd396       O397   2.480       .  S
Cd396       O400   2.486   1_565  S
Cd396       O398   2.411   1_565  S
C399        O403   1.265       .  A
C399        C407   1.462       .  S
O404        C407   1.267       .  A
O404       Cd409   2.502       .  S
C405        O414   1.262       .  A
C405        O410   1.270       .  A
O406        C412   1.266       .  A
O406       Cd409   2.448       .  S
C407        O415   1.262       .  A
C408        O413   1.266       .  A
C408        O411   1.264       .  A
C408       C2434   1.476       .  S
Cd409       O416   2.461       .  S
Cd409       O415   2.414       .  S
Cd409       O414   2.394       .  S
Cd409       O410   2.501       .  S
Cd409       O413   2.473       .  S
Cd409       O411   2.417       .  S
C412        O416   1.266       .  A
C412       C1810   1.490       .  S
O417        C420   1.267       .  A
O417       Cd422   2.494       .  S
C418        O427   1.262       .  A
C418        O423   1.267       .  A
O419        C425   1.265       .  A
O419       Cd422   2.466       .  S
C420        O428   1.264       .  A
C420        C433   1.465       .  S
C421        O426   1.263       .  A
C421        O424   1.268       .  A
C421       C1813   1.491       .  S
Cd422       O429   2.434       .  S
Cd422       O428   2.426       .  S
Cd422       O427   2.424       .  S
Cd422       O423   2.502       .  S
Cd422       O426   2.451       .  S
Cd422       O424   2.465       .  S
C425        O429   1.263       .  A
C425       C2373   1.474       .  S
O430        C433   1.271       .  A
O430       Cd435   2.488       .  S
C431        O440   1.266       .  A
C431        O436   1.271       .  A
C431       C1797   1.488       .  S
O432        C438   1.271       .  A
O432       Cd435   2.494       .  S
C433        O441   1.265       .  A
C434        O439   1.272       .  A
C434        O437   1.263       .  A
C434       C2130   1.488       .  S
Cd435       O442   2.393       .  S
Cd435       O441   2.412       .  S
Cd435       O440   2.419       .  S
Cd435       O436   2.482       .  S
Cd435       O439   2.482       .  S
Cd435       O437   2.407       .  S
C438        O442   1.265       .  A
C438        C459   1.463       .  S
O443        C446   1.268       .  A
O443       Cd448   2.477       .  S
C444        O453   1.261       .  A
C444        O449   1.268       .  A
C444        C498   1.456       .  S
O445        C451   1.269       .  A
O445       Cd448   2.468       .  S
C446        O454   1.265       .  A
C447        O452   1.270       .  A
C447        O450   1.261       .  A
C447       C1765   1.485       .  S
Cd448       O455   2.448       .  S
Cd448       O454   2.419       .  S
Cd448       O453   2.383       .  S
Cd448       O449   2.490       .  S
Cd448       O452   2.490       .  S
Cd448       O450   2.401       .  S
C451        O455   1.266       .  A
C451       C1778   1.494       .  S
O456        C459   1.269       .  A
O456       Cd461   2.507       .  S
C457        O466   1.262       .  A
C457        O462   1.270       .  A
C457        C509   1.467       .  S
O458        C464   1.267       .  A
O458       Cd461   2.470       .  S
C459        O467   1.263       .  A
C460        O465   1.265       .  A
C460        O463   1.269       .  A
C460       C1781   1.493       .  S
Cd461       O468   2.427       .  S
Cd461       O467   2.404       .  S
Cd461       O466   2.411       .  S
Cd461       O462   2.510       .  S
Cd461       O465   2.448       .  S
Cd461       O463   2.466       .  S
C464        O468   1.263       .  A
C464       C1749   1.484       .  S
O469        C472   1.267       .  A
O469       Cd474   2.477       .  S
C470        O479   1.262       .  A
C470        O475   1.267       .  A
O471        C477   1.265       .  A
O471       Cd474   2.452       .  S
C472        O480   1.263       .  A
C472       C1730   1.489       .  S
C473        O478   1.264       .  A
C473        O476   1.264       .  A
C473       C1714   1.483       .  S
Cd474       O481   2.458       .  S
Cd474       O480   2.450       .  S
Cd474       O479   2.422       .  S
Cd474       O475   2.494       .  S
Cd474       O478   2.464       .  S
Cd474       O476   2.457       .  S
C477        O481   1.268       .  A
C477       C1698   1.491       .  S
O482        C485   1.267       .  A
O482       Cd487   2.498       .  S
C483        O492   1.264       .  A
C483        O488   1.265       .  A
C483       C1682   1.490       .  S
O484        C490   1.264       .  A
O484       Cd487   2.461       .  S
C485        O493   1.262       .  A
C486        O491   1.266       .  A
C486        O489   1.266       .  A
C486       C1717   1.484       .  S
Cd487       O494   2.479       .  S
Cd487       O493   2.436       .  S
Cd487       O492   2.446       .  S
Cd487       O488   2.486       .  S
Cd487       O491   2.452       .  S
Cd487       O489   2.468       .  S
C490        O494   1.265       .  A
C490       C1666   1.489       .  S
O495        C498   1.266       .  A
O495       Cd500   2.488       .  S
C496        O505   1.262       .  A
C496        O501   1.265       .  A
C496       C1685   1.487       .  S
O497        C503   1.264       .  A
O497       Cd500   2.456       .  S
C498        O506   1.262       .  A
C499        O504   1.261       .  A
C499        O502   1.267       .  A
C499       C1634   1.489       .  S
Cd500       O507   2.469       .  S
Cd500       O506   2.396       .  S
Cd500       O505   2.447       .  S
Cd500       O501   2.460       .  S
Cd500       O504   2.439       .  S
Cd500       O502   2.484       .  S
C503        O507   1.266       .  A
C503       C1650   1.487       .  S
O508        C511   1.265       .  A
O508       Cd513   2.472       .  S
C509        O518   1.263       .  A
C509        O514   1.266       .  A
O510        C516   1.266       .  A
O510       Cd513   2.452       .  S
C511        O519   1.265       .  A
C511       C1733   1.489       .  S
C512        O517   1.263       .  A
C512        O515   1.267       .  A
C512       C1618   1.491       .  S
Cd513       O520   2.475       .  S
Cd513       O519   2.441       .  S
Cd513       O518   2.429       .  S
Cd513       O514   2.513       .  S
Cd513       O517   2.465       .  S
Cd513       O515   2.467       .  S
C516        O520   1.265       .  A
C516       C1653   1.489       .  S
O521        C524   1.270       .  A
O521       Cd526   2.471       .  S
C522        O531   1.265       .  A
C522        O527   1.269       .  A
C522        C574   1.462       .  S
O523        C529   1.271       .  A
O523       Cd526   2.497       .  S
C524        O532   1.266       .  A
C524       C1602   1.490       .  S
C525        O530   1.272       .  A
C525        O528   1.263       .  A
C525       C1701   1.493       .  S
Cd526       O533   2.406       .  S
Cd526       O532   2.416       .  S
Cd526       O531   2.418       .  S
Cd526       O527   2.479       .  S
Cd526       O530   2.487       .  S
Cd526       O528   2.421       .  S
C529        O533   1.264       .  A
C529        C537   1.465       .  S
O534        C537   1.266       .  A
O534       Cd539   2.515       .  S
C535        O544   1.263       .  A
C535        O540   1.268       .  A
C535        C628   1.460       .  S
O536        C542   1.265       .  A
O536       Cd539   2.442       .  S
C537        O545   1.261       .  A
C538        O543   1.265       .  A
C538        O541   1.263       .  A
C538       C1573   1.482       .  S
Cd539       O546   2.468       .  S
Cd539       O545   2.423       .  S
Cd539       O544   2.409       .  S
Cd539       O540   2.489       .  S
Cd539       O543   2.485       .  S
Cd539       O541   2.426       .  S
C542        O546   1.268       .  A
C542       C1586   1.489       .  S
O547        C550   1.267       .  A
O547       Cd552   2.496       .  S
C548        O557   1.262       .  A
C548        O553   1.268       .  A
C548        C641   1.459       .  S
O549        C555   1.268       .  A
O549       Cd552   2.500       .  S
C550        O558   1.265       .  A
C550        C563   1.465       .  S
C551        O556   1.268       .  A
C551        O554   1.265       .  A
C551       C1589   1.495   1_455  S
Cd552       O559   2.409       .  S
Cd552       O558   2.420       .  S
Cd552       O557   2.398       .  S
Cd552       O553   2.486       .  S
Cd552       O556   2.478       .  S
Cd552       O554   2.455       .  S
C555        O559   1.263       .  A
C555       C1557   1.479       .  S
O560        C563   1.273       .  A
O560       Cd565   2.493       .  S
C561        O570   1.265       .  A
C561        O566   1.273       .  A
C561       C1621   1.488       .  S
O562        C568   1.272       .  A
O562       Cd565   2.492       .  S
C563        O571   1.265       .  A
C564        O569   1.273       .  A
C564        O567   1.265       .  A
C564       C1538   1.485       .  S
Cd565       O572   2.420       .  S
Cd565       O571   2.396       .  S
Cd565       O570   2.417       .  S
Cd565       O566   2.478       .  S
Cd565       O569   2.481       .  S
Cd565       O567   2.420       .  S
C568        O572   1.266       .  A
C568        C589   1.468       .  S
O573        C576   1.268       .  A
O573       Cd578   2.498       .  S
C574        O583   1.263       .  A
C574        O579   1.267       .  A
O575        C581   1.265       .  A
O575       Cd578   2.490       .  S
C576        O584   1.262       .  A
C576        C680   1.461       .  S
C577        O582   1.265       .  A
C577        O580   1.268       .  A
C577       C1522   1.487       .  S
Cd578       O585   2.424       .  S
Cd578       O584   2.406       .  S
Cd578       O583   2.425       .  S
Cd578       O579   2.488       .  S
Cd578       O582   2.437       .  S
Cd578       O580   2.458       .  S
C581        O585   1.263       .  A
C581       C1877   1.485       .  S
O586        C589   1.268       .  A
O586       Cd591   2.496       .  S
C587        O596   1.262       .  A
C587        O592   1.270       .  A
C587        C693   1.462       .  S
O588        C594   1.269       .  A
O588       Cd591   2.474       .  S
C589        O597   1.265       .  A
C590        O595   1.267       .  A
C590        O593   1.266       .  A
C590       C1525   1.492   1_455  S
Cd591       O598   2.407       .  S
Cd591       O597   2.434       .  S
Cd591       O596   2.400       .  S
Cd591       O592   2.501       .  S
Cd591       O595   2.458       .  S
Cd591       O593   2.464       .  S
C594        O598   1.265       .  A
C594       C1746   1.486       .  S
O599        C602   1.267       .  A
O599       Cd604   2.460       .  S
C600        O609   1.262       .  A
C600        O605   1.268       .  A
C600        C756   1.466       .  S
O601        C607   1.266       .  A
O601       Cd604   2.453       .  S
C602        O610   1.263       .  A
C602       C1506   1.489       .  S
C603        O608   1.265       .  A
C603        O606   1.265       .  A
C603       C1474   1.486       .  S
Cd604       O611   2.448       .  S
Cd604       O610   2.462       .  S
Cd604       O609   2.424       .  S
Cd604       O605   2.507       .  S
Cd604       O608   2.457       .  S
Cd604       O606   2.455       .  S
C607        O611   1.264       .  A
C607       C1490   1.485       .  S
O612        C615   1.264       .  A
O612       Cd617   2.470       .  S
C613        O622   1.262       .  A
C613        O618   1.267       .  A
C613        C771   1.457       .  S
O614        C620   1.263       .  A
O614       Cd617   2.457       .  S
C615        O623   1.265       .  A
C615       C1461   1.489       .  S
C616        O621   1.265       .  A
C616        O619   1.266       .  A
C616       C1493   1.486   1_455  S
Cd617       O624   2.460       .  S
Cd617       O623   2.439       .  S
Cd617       O622   2.388       .  S
Cd617       O618   2.496       .  S
Cd617       O621   2.453       .  S
Cd617       O619   2.451       .  S
C620        O624   1.267       .  A
C620       C1442   1.489       .  S
O625        C628   1.266       .  A
O625       Cd630   2.488       .  S
C626        O635   1.266       .  A
C626        O631   1.260       .  A
C626       C1509   1.489       .  S
O627        C633   1.267       .  A
O627       Cd630   2.498       .  S
C628        O636   1.263       .  A
C629        O634   1.265       .  A
C629        O632   1.265       .  A
C629       C1410   1.490       .  S
Cd630       O637   2.433       .  S
Cd630       O636   2.418       .  S
Cd630       O635   2.490       .  S
Cd630       O631   2.436       .  S
Cd630       O634   2.485       .  S
Cd630       O632   2.450       .  S
C633        O637   1.262       .  A
C633       C1426   1.491       .  S
O638        C641   1.265       .  A
O638       Cd643   2.496       .  S
C639        O648   1.263       .  A
C639        O644   1.265       .  A
C639       C1458   1.487       .  S
O640        C646   1.264       .  A
O640       Cd643   2.440       .  S
C641        O649   1.262       .  A
C642        O647   1.263       .  A
C642        O645   1.265       .  A
C642       C1429   1.488   1_455  S
Cd643       O650   2.452       .  S
Cd643       O649   2.415       .  S
Cd643       O648   2.438       .  S
Cd643       O644   2.463       .  S
Cd643       O647   2.471       .  S
Cd643       O645   2.435       .  S
C646        O650   1.266       .  A
C646       C1394   1.486       .  S
O651        C654   1.266       .  A
O651       Cd656   2.450       .  S
C652        O661   1.261       .  A
C652        O657   1.266       .  A
C652        C719   1.464       .  S
O653        C659   1.265       .  A
O653       Cd656   2.459       .  S
C654        O662   1.264       .  A
C654       C1362   1.481       .  S
C655        O660   1.263       .  A
C655        O658   1.268       .  A
C655       C1925   1.488       .  S
Cd656       O663   2.442       .  S
Cd656       O662   2.452       .  S
Cd656       O661   2.403       .  S
Cd656       O657   2.525       .  S
Cd656       O660   2.454       .  S
Cd656       O658   2.461       .  S
C659        O663   1.263       .  A
C659       C1378   1.477       .  S
O664        C667   1.265       .  A
O664       Cd669   2.470       .  S
C665        O674   1.262       .  A
C665        O670   1.267       .  A
C665        C732   1.466       .  S
O666        C672   1.264       .  A
O666       Cd669   2.444       .  S
C667        O675   1.263       .  A
C667       C1346   1.491       .  S
C668        O673   1.263       .  A
C668        O671   1.264       .  A
C668       C1381   1.475   1_455  S
Cd669       O676   2.456       .  S
Cd669       O675   2.468       .  S
Cd669       O674   2.433       .  S
Cd669       O670   2.509       .  S
Cd669       O673   2.452       .  S
Cd669       O671   2.439       .  S
C672        O676   1.269       .  A
C672       C1829   1.486       .  S
O677        C680   1.266       .  A
O677       Cd682   2.501       .  S
C678        O687   1.265       .  A
C678        O683   1.265       .  A
C678       C1365   1.484       .  S
O679        C685   1.266       .  A
O679       Cd682   2.450       .  S
C680        O688   1.262       .  A
C681        O686   1.263       .  A
C681        O684   1.267       .  A
C681       C1861   1.488       .  S
Cd682       O689   2.446       .  S
Cd682       O688   2.413       .  S
Cd682       O687   2.442       .  S
Cd682       O683   2.444       .  S
Cd682       O686   2.459       .  S
Cd682       O684   2.456       .  S
C685        O689   1.264       .  A
C685       C1330   1.479       .  S
O690        C693   1.265       .  A
O690       Cd695   2.499       .  S
C691        O700   1.264       .  A
C691        O696   1.264       .  A
C691       C1349   1.483       .  S
O692        C698   1.264       .  A
O692       Cd695   2.461       .  S
C693        O701   1.263       .  A
C694        O699   1.263       .  A
C694        O697   1.266       .  A
C694       C1333   1.479   1_455  S
Cd695       O702   2.466       .  S
Cd695       O701   2.422       .  S
Cd695       O700   2.451       .  S
Cd695       O696   2.465       .  S
Cd695       O699   2.443       .  S
Cd695       O697   2.462       .  S
C698        O702   1.265       .  A
C698       C1794   1.491       .  S
O703        C706   1.273       .  A
O703       Cd708   2.497       .  S
C704        O713   1.265       .  A
C704        O709   1.272       .  A
C704        C717   1.472       .  S
O705        C711   1.271       .  A
O705       Cd708   2.486   1_565  S
C706        O714   1.265       .  A
C706       C1314   1.487       .  S
C707        O712   1.272   1_545  A
C707        O710   1.267       .  A
C707        C758   1.472   1_545  S
Cd708       O715   2.431       .  S
Cd708       O714   2.418       .  S
Cd708       O713   2.425       .  S
Cd708       O709   2.514       .  S
Cd708       O712   2.504   1_545  S
Cd708       O710   2.428       .  S
C711        O715   1.265   1_565  A
C711       C1669   1.495       .  S
O716        C719   1.269       .  A
O716       Cd721   2.528       .  S
C717        O726   1.264       .  A
C717        O722   1.268       .  A
O718        C724   1.267       .  A
O718       Cd721   2.476       .  S
C719        O727   1.261       .  A
C720        O725   1.269       .  A
C720        O723   1.264   1_565  A
C720       C1893   1.486       .  S
Cd721       O728   2.486       .  S
Cd721       O727   2.396       .  S
Cd721       O726   2.438       .  S
Cd721       O722   2.517       .  S
Cd721       O725   2.508   1_545  S
Cd721       O723   2.426       .  S
C724        O728   1.265       .  A
C724       C1301   1.497       .  S
O729        C732   1.268       .  A
O729       Cd734   2.500       .  S
C730        O739   1.263       .  A
C730        O735   1.266       .  A
C730        C750   1.463       .  S
O731        C737   1.265       .  A
O731       Cd734   2.486   1_565  S
C732        O740   1.263       .  A
C733        O738   1.264       .  A
C733        O736   1.268       .  A
C733       C1298   1.495   1_455  S
Cd734       O741   2.437       .  S
Cd734       O740   2.429       .  S
Cd734       O739   2.423       .  S
Cd734       O735   2.501       .  S
Cd734       O738   2.456       .  S
Cd734       O736   2.481       .  S
C737        O741   1.265   1_565  A
C737       C1762   1.489       .  S
O742        C745   1.270       .  A
O742       Cd747   2.473   1_565  S
C743        O752   1.266       .  A
C743        O748   1.269   1_545  A
C743        C769   1.461   1_545  S
O744        C750   1.270       .  A
O744       Cd747   2.489       .  S
C745        O753   1.263   1_565  A
C745       C1637   1.476       .  S
C746        O751   1.271       .  A
C746        O749   1.264       .  A
C746       C1285   1.480       .  S
Cd747       O754   2.399       .  S
Cd747       O753   2.401       .  S
Cd747       O752   2.420       .  S
Cd747       O748   2.468   1_545  S
Cd747       O751   2.482       .  S
Cd747       O749   2.408       .  S
C750        O754   1.264       .  A
O755        C758   1.268       .  A
O755       Cd760   2.523       .  S
C756        O765   1.263       .  A
C756        O761   1.269       .  A
O757        C763   1.267       .  A
O757       Cd760   2.491   1_545  S
C758        O766   1.263   1_565  A
C759        O764   1.267   1_565  A
C759        O762   1.267       .  A
C759       C1266   1.494       .  S
Cd760       O767   2.428   1_565  S
Cd760       O766   2.440   1_565  S
Cd760       O765   2.418       .  S
Cd760       O761   2.503       .  S
Cd760       O764   2.446   1_565  S
Cd760       O762   2.483       .  S
C763        O767   1.263       .  A
C763       C1250   1.482       .  S
O768        C771   1.267       .  A
O768       Cd773   2.501       .  S
C769        O778   1.264   1_565  A
C769        O774   1.267       .  A
O770        C776   1.266       .  A
O770       Cd773   2.483   1_545  S
C771        O779   1.261       .  A
C772        O777   1.266   1_565  A
C772        O775   1.269       .  A
C772       C1269   1.492   1_455  S
Cd773       O780   2.423   1_565  S
Cd773       O779   2.389       .  S
Cd773       O778   2.423   1_565  S
Cd773       O774   2.472       .  S
Cd773       O777   2.439   1_565  S
Cd773       O775   2.469       .  S
C776        O780   1.263       .  A
C776       C1234   1.478       .  S
O781        C784   1.270       .  A
O781       Cd786   2.481       .  S
C782        O791   1.264       .  A
C782        O787   1.271       .  A
C782       C2053   1.490   1_545  S
O783        C789   1.272       .  A
O783       Cd786   2.499       .  S
C784        O792   1.265       .  A
C784        C797   1.464       .  S
C785        O790   1.272       .  A
C785        O788   1.265       .  A
C785       C1477   1.491   1_545  S
Cd786       O793   2.395       .  S
Cd786       O792   2.412       .  S
Cd786       O791   2.422       .  S
Cd786       O787   2.481       .  S
Cd786       O790   2.494       .  S
Cd786       O788   2.401       .  S
C789        O793   1.264       .  A
C789        C836   1.464       .  S
O794        C797   1.267       .  A
O794       Cd799   2.490       .  S
C795        O804   1.262       .  A
C795        O800   1.267       .  A
C795        C951   1.464       .  S
O796        C802   1.267       .  A
O796       Cd799   2.486       .  S
C797        O805   1.264       .  A
C798        O803   1.266       .  A
C798        O801   1.265       .  A
C798       C1218   1.494       .  S
Cd799       O806   2.433       .  S
Cd799       O805   2.429       .  S
Cd799       O804   2.416       .  S
Cd799       O800   2.508       .  S
Cd799       O803   2.465       .  S
Cd799       O801   2.470       .  S
C802        O806   1.263       .  A
C802       C1253   1.483       .  S
O807        C810   1.268       .  A
O807       Cd812   2.499       .  S
C808        O817   1.262       .  A
C808        O813   1.269       .  A
C808        C940   1.461       .  S
O809        C815   1.264       .  A
O809       Cd812   2.451       .  S
C810        O818   1.264       .  A
C810        C828   1.466       .  S
C811        O816   1.269       .  A
C811        O814   1.264       .  A
C811       C1570   1.479       .  S
Cd812       O819   2.476       .  S
Cd812       O818   2.423       .  S
Cd812       O817   2.417       .  S
Cd812       O813   2.487       .  S
Cd812       O816   2.476       .  S
Cd812       O814   2.414       .  S
C815        O819   1.267       .  A
C815       C1221   1.492       .  S
O820        C823   1.272       .  A
O820       Cd825   2.483       .  S
C821        O830   1.265       .  A
C821        O826   1.271       .  A
C821        C847   1.459       .  S
O822        C828   1.272       .  A
O822       Cd825   2.490       .  S
C823        O831   1.264       .  A
C823       C1413   1.490       .  S
C824        O829   1.273       .  A
C824        O827   1.263       .  A
C824       C2021   1.494       .  S
Cd825       O832   2.408       .  S
Cd825       O831   2.412       .  S
Cd825       O830   2.394       .  S
Cd825       O826   2.473       .  S
Cd825       O829   2.500       .  S
Cd825       O827   2.420       .  S
C828        O832   1.266       .  A
O833        C836   1.268       .  A
O833       Cd838   2.499       .  S
C834        O843   1.261       .  A
C834        O839   1.267       .  A
C834        C990   1.459       .  S
O835        C841   1.267       .  A
O835       Cd838   2.492       .  S
C836        O844   1.264       .  A
C837        O842   1.267       .  A
C837        O840   1.266       .  A
C837       C1202   1.494       .  S
Cd838       O845   2.432       .  S
Cd838       O844   2.407       .  S
Cd838       O843   2.401       .  S
Cd838       O839   2.500       .  S
Cd838       O842   2.466       .  S
Cd838       O840   2.462       .  S
C841        O845   1.262       .  A
C841       C2514   1.484       .  S
O846        C849   1.269       .  A
O846       Cd851   2.502       .  S
C847        O856   1.264       .  A
C847        O852   1.268       .  A
O848        C854   1.267       .  A
O848       Cd851   2.473       .  S
C849        O857   1.261       .  A
C849       C1018   1.458       .  S
C850        O855   1.265       .  A
C850        O853   1.268       .  A
C850       C1205   1.493       .  S
Cd851       O858   2.438       .  S
Cd851       O857   2.381       .  S
Cd851       O856   2.408       .  S
Cd851       O852   2.480       .  S
Cd851       O855   2.448       .  S
Cd851       O853   2.463       .  S
C854        O858   1.263       .  A
C854       C2277   1.482       .  S
O859        C862   1.269       .  A
O859       Cd864   2.513       .  S
C860        O869   1.263       .  A
C860        O865   1.267       .  A
C860        C906   1.463       .  S
O861        C867   1.266       .  A
O861       Cd864   2.486       .  S
C862        O870   1.262       .  A
C862       C1005   1.463       .  S
C863        O868   1.265       .  A
C863        O866   1.268       .  A
C863       C1186   1.489       .  S
Cd864       O871   2.421       .  S
Cd864       O870   2.399       .  S
Cd864       O869   2.415       .  S
Cd864       O865   2.495       .  S
Cd864       O868   2.445       .  S
Cd864       O866   2.457       .  S
C867        O871   1.264       .  A
C867       C2498   1.485       .  S
O872        C875   1.267       .  A
O872       Cd877   2.469       .  S
C873        O882   1.264       .  A
C873        O878   1.269       .  A
C873       C1029   1.460       .  S
O874        C880   1.268       .  A
O874       Cd877   2.488       .  S
C875        O883   1.263       .  A
C875        C888   1.456       .  S
C876        O881   1.268       .  A
C876        O879   1.266       .  A
C876       C1189   1.487       .  S
Cd877       O884   2.413       .  S
Cd877       O883   2.409       .  S
Cd877       O882   2.392       .  S
Cd877       O878   2.490       .  S
Cd877       O881   2.457       .  S
Cd877       O879   2.450       .  S
C880        O884   1.263       .  A
C880       C2261   1.488       .  S
O885        C888   1.269       .  A
O885       Cd890   2.460       .  S
C886        O895   1.263       .  A
C886        O891   1.270       .  A
C886       C1397   1.484       .  S
O887        C893   1.269       .  A
O887       Cd890   2.489       .  S
C888        O896   1.266       .  A
C889        O894   1.269       .  A
C889        O892   1.264       .  A
C889       C2005   1.479       .  S
Cd890       O897   2.416       .  S
Cd890       O896   2.397       .  S
Cd890       O895   2.372       .  S
Cd890       O891   2.492       .  S
Cd890       O894   2.472       .  S
Cd890       O892   2.422       .  S
C893        O897   1.265       .  A
C893        C927   1.464       .  S
O898        C901   1.270       .  A
O898       Cd903   2.488       .  S
C899        O908   1.266       .  A
C899        O904   1.270       .  A
C899        C914   1.461       .  S
O900        C906   1.270       .  A
O900       Cd903   2.491       .  S
C901        O909   1.264       .  A
C901       C2085   1.489   1_545  S
C902        O907   1.271       .  A
C902        O905   1.264       .  A
C902       C1445   1.487   1_545  S
Cd903       O910   2.405       .  S
Cd903       O909   2.396       .  S
Cd903       O908   2.406       .  S
Cd903       O904   2.477       .  S
Cd903       O907   2.479       .  S
Cd903       O905   2.420       .  S
C906        O910   1.264       .  A
O911        C914   1.269       .  A
O911       Cd916   2.485       .  S
C912        O921   1.262       .  A
C912        O917   1.270       .  A
C912        C964   1.461       .  S
O913        C919   1.267       .  A
O913       Cd916   2.446       .  S
C914        O922   1.264       .  A
C915        O920   1.268       .  A
C915        O918   1.263       .  A
C915       C1237   1.473       .  S
Cd916       O923   2.467       .  S
Cd916       O922   2.410       .  S
Cd916       O921   2.402       .  S
Cd916       O917   2.498       .  S
Cd916       O920   2.469       .  S
Cd916       O918   2.415       .  S
C919        O923   1.267       .  A
C919       C1173   1.492       .  S
O924        C927   1.267       .  A
O924       Cd929   2.502       .  S
C925        O934   1.262       .  A
C925        O930   1.268       .  A
C925        C979   1.462       .  S
O926        C932   1.266       .  A
O926       Cd929   2.475       .  S
C927        O935   1.262       .  A
C928        O933   1.264       .  A
C928        O931   1.268       .  A
C928       C1170   1.492       .  S
Cd929       O936   2.427       .  S
Cd929       O935   2.421       .  S
Cd929       O934   2.417       .  S
Cd929       O930   2.492       .  S
Cd929       O933   2.442       .  S
Cd929       O931   2.468       .  S
C932        O936   1.263       .  A
C932       C1554   1.474       .  S
O937        C940   1.265       .  A
O937       Cd942   2.486       .  S
C938        O947   1.264       .  A
C938        O943   1.265       .  A
C938       C1154   1.484       .  S
O939        C945   1.264       .  A
O939       Cd942   2.488       .  S
C940        O948   1.263       .  A
C941        O946   1.265       .  A
C941        O944   1.266       .  A
C941       C1605   1.487       .  S
Cd942       O949   2.435       .  S
Cd942       O948   2.431       .  S
Cd942       O947   2.443       .  S
Cd942       O943   2.478       .  S
Cd942       O946   2.454       .  S
Cd942       O944   2.470       .  S
C945        O949   1.264       .  A
C945       C1138   1.489       .  S
O950        C953   1.266       .  A
O950       Cd955   2.502       .  S
C951        O960   1.263       .  A
C951        O956   1.269       .  A
O952        C958   1.265       .  A
O952       Cd955   2.476       .  S
C953        O961   1.263       .  A
C953       C1125   1.489       .  S
C954        O959   1.265       .  A
C954        O957   1.265       .  A
C954       C1317   1.490       .  S
Cd955       O962   2.447       .  S
Cd955       O961   2.422       .  S
Cd955       O960   2.408       .  S
Cd955       O956   2.504       .  S
Cd955       O959   2.452       .  S
Cd955       O957   2.457       .  S
C958        O962   1.263       .  A
C958       C1141   1.490       .  S
O963        C966   1.265       .  A
O963       Cd968   2.452       .  S
C964        O973   1.263       .  A
C964        O969   1.265       .  A
O965        C971   1.264       .  A
O965       Cd968   2.467       .  S
C966        O974   1.263       .  A
C966       C1122   1.487       .  S
C967        O972   1.265       .  A
C967        O970   1.263       .  A
C967       C1106   1.487       .  S
Cd968       O975   2.442       .  S
Cd968       O974   2.449       .  S
Cd968       O973   2.420       .  S
Cd968       O969   2.495       .  S
Cd968       O972   2.459       .  S
Cd968       O970   2.450       .  S
C971        O975   1.267       .  A
C971       C1282   1.488       .  S
O976        C979   1.266       .  A
O976       Cd981   2.485       .  S
C977        O986   1.265       .  A
C977        O982   1.263       .  A
C977       C1157   1.488       .  S
O978        C984   1.263       .  A
O978       Cd981   2.458       .  S
C979        O987   1.264       .  A
C980        O985   1.265       .  A
C980        O983   1.264       .  A
C980       C1109   1.486       .  S
Cd981       O988   2.476       .  S
Cd981       O987   2.424       .  S
Cd981       O986   2.444       .  S
Cd981       O982   2.467       .  S
Cd981       O985   2.476       .  S
Cd981       O983   2.427       .  S
C984        O988   1.268       .  A
C984       C1541   1.490       .  S
O989        C992   1.266       .  A
O989       Cd994   2.460       .  S
C990        O999   1.261       .  A
C990        O995   1.267       .  A
O991        C997   1.263       .  A
O991       Cd994   2.455       .  S
C992       O1000   1.264       .  A
C992       C1090   1.488       .  S
C993        O998   1.265       .  A
C993        O996   1.265       .  A
C993       C2466   1.489       .  S
Cd994      O1001   2.448       .  S
Cd994      O1000   2.450       .  S
Cd994       O999   2.403       .  S
Cd994       O995   2.500       .  S
Cd994       O998   2.451       .  S
Cd994       O996   2.458       .  S
C997       O1001   1.266       .  A
C997       C1077   1.486       .  S
O1002      C1005   1.266       .  A
O1002     Cd1007   2.514       .  S
C1003      O1012   1.264       .  A
C1003      O1008   1.266       .  A
C1003      C1093   1.486   1_455  S
O1004      C1010   1.263       .  A
O1004     Cd1007   2.433       .  S
C1005      O1013   1.262       .  A
C1006      O1011   1.262       .  A
C1006      O1009   1.266       .  A
C1006      C2549   1.490       .  S
Cd1007     O1014   2.476       .  S
Cd1007     O1013   2.411       .  S
Cd1007     O1012   2.424       .  S
Cd1007     O1008   2.470       .  S
Cd1007     O1011   2.452       .  S
Cd1007     O1009   2.464       .  S
C1010      O1014   1.267       .  A
C1010      C1061   1.487       .  S
O1015      C1018   1.264       .  A
O1015     Cd1020   2.509       .  S
C1016      O1025   1.264       .  A
C1016      O1021   1.266       .  A
C1016      C1042   1.479       .  S
O1017      C1023   1.264       .  A
O1017     Cd1020   2.448       .  S
C1018      O1026   1.260       .  A
C1019      O1024   1.262       .  A
C1019      O1022   1.264       .  A
C1019      C2309   1.482       .  S
Cd1020     O1027   2.450       .  S
Cd1020     O1026   2.399       .  S
Cd1020     O1025   2.434       .  S
Cd1020     O1021   2.447       .  S
Cd1020     O1024   2.435       .  S
Cd1020     O1022   2.464       .  S
C1023      O1027   1.265       .  A
C1023      C1074   1.478       .  S
O1028      C1031   1.267       .  A
O1028     Cd1033   2.458       .  S
C1029      O1038   1.260       .  A
C1029      O1034   1.267       .  A
O1030      C1036   1.266       .  A
O1030     Cd1033   2.430       .  S
C1031      O1039   1.264       .  A
C1031      C1045   1.483   1_455  S
C1032      O1037   1.261       .  A
C1032      O1035   1.267       .  A
C1032      C2338   1.485       .  S
Cd1033     O1040   2.443       .  S
Cd1033     O1039   2.422       .  S
Cd1033     O1038   2.402       .  S
Cd1033     O1034   2.509       .  S
Cd1033     O1037   2.426       .  S
Cd1033     O1035   2.466       .  S
C1036      O1040   1.265       .  A
C1036      C1058   1.482       .  S
C1041      C1042   1.404       .  A
C1041      C1046   1.402       .  A
C1041      H1048   1.083       .  S
C1042      C1043   1.415       .  A
C1043      C1044   1.401       .  A
C1043      C1050   1.509       .  S
C1044      C1045   1.407       .  A
C1044      H1049   1.082       .  S
C1045      C1046   1.417       .  A
C1046      C1047   1.508       .  S
C1047      H1051   1.111       .  S
C1047      H1052   1.110       .  S
C1047      H1053   1.110       .  S
C1050      H1054   1.110       .  S
C1050      H1055   1.109       .  S
C1050      H1056   1.111       .  S
C1057      C1058   1.403       .  A
C1057      C1062   1.400       .  A
C1057      H1064   1.084       .  S
C1058      C1059   1.416       .  A
C1059      C1060   1.404       .  A
C1059      C1066   1.509       .  S
C1060      C1061   1.406       .  A
C1060      H1065   1.083       .  S
C1061      C1062   1.419       .  A
C1062      C1063   1.509       .  S
C1063      H1067   1.111       .  S
C1063      H1068   1.110       .  S
C1063      H1069   1.110       .  S
C1066      H1070   1.111   1_455  S
C1066      H1071   1.109       .  S
C1066      H1072   1.111   1_455  S
C1073      C1074   1.404       .  A
C1073      C1078   1.404       .  A
C1073      H1080   1.083       .  S
C1074      C1075   1.412       .  A
C1075      C1076   1.401       .  A
C1075      C1082   1.508       .  S
C1076      C1077   1.406       .  A
C1076      H1081   1.082       .  S
C1077      C1078   1.420       .  A
C1078      C1079   1.509       .  S
C1079      H1083   1.111       .  S
C1079      H1084   1.110       .  S
C1079      H1085   1.110       .  S
C1082      H1086   1.109       .  S
C1082      H1087   1.111       .  S
C1082      H1088   1.111       .  S
C1089      C1090   1.406       .  A
C1089      C1094   1.404       .  A
C1089      H1096   1.084       .  S
C1090      C1091   1.418       .  A
C1091      C1092   1.401       .  A
C1091      C1098   1.509       .  S
C1092      C1093   1.405       .  A
C1092      H1097   1.084       .  S
C1093      C1094   1.417       .  A
C1094      C1095   1.508       .  S
C1095      H1099   1.111       .  S
C1095      H1100   1.110       .  S
C1095      H1101   1.110       .  S
C1098      H1102   1.110       .  S
C1098      H1103   1.110       .  S
C1098      H1104   1.111       .  S
C1105      C1106   1.407       .  A
C1105      C1110   1.404       .  A
C1105      H1112   1.082       .  S
C1106      C1107   1.418       .  A
C1107      C1108   1.401       .  A
C1107      C1114   1.509       .  S
C1108      C1109   1.405       .  A
C1108      H1113   1.083       .  S
C1109      C1110   1.417       .  A
C1110      C1111   1.508       .  S
C1111      H1115   1.111       .  S
C1111      H1116   1.110       .  S
C1111      H1117   1.110       .  S
C1114      H1118   1.110       .  S
C1114      H1119   1.110       .  S
C1114      H1120   1.111       .  S
C1121      C1122   1.407       .  A
C1121      C1126   1.404       .  A
C1121      H1128   1.085       .  S
C1122      C1123   1.417       .  A
C1123      C1124   1.400       .  A
C1123      C1130   1.509       .  S
C1124      C1125   1.406       .  A
C1124      H1129   1.084       .  S
C1125      C1126   1.417       .  A
C1126      C1127   1.507       .  S
C1127      H1131   1.111       .  S
C1127      H1132   1.110       .  S
C1127      H1133   1.110       .  S
C1130      H1134   1.110       .  S
C1130      H1135   1.110       .  S
C1130      H1136   1.111       .  S
C1137      C1138   1.404       .  A
C1137      C1142   1.400       .  A
C1137      H1144   1.084       .  S
C1138      C1139   1.418       .  A
C1139      C1140   1.407       .  A
C1139      C1146   1.508       .  S
C1140      C1141   1.408       .  A
C1140      H1145   1.084       .  S
C1141      C1142   1.418       .  A
C1142      C1143   1.509       .  S
C1143      H1147   1.111       .  S
C1143      H1148   1.110       .  S
C1143      H1149   1.110       .  S
C1146      H1150   1.110       .  S
C1146      H1151   1.110       .  S
C1146      H1152   1.111       .  S
C1153      C1154   1.405       .  A
C1153      C1158   1.406       .  A
C1153      H1160   1.085       .  S
C1154      C1155   1.414       .  A
C1155      C1156   1.400       .  A
C1155      C1162   1.508       .  S
C1156      C1157   1.405       .  A
C1156      H1161   1.084       .  S
C1157      C1158   1.421       .  A
C1158      C1159   1.509       .  S
C1159      H1163   1.111       .  S
C1159      H1164   1.110       .  S
C1159      H1165   1.110       .  S
C1162      H1166   1.110       .  S
C1162      H1167   1.109       .  S
C1162      H1168   1.111       .  S
C1169      C1170   1.406       .  A
C1169      C1174   1.405       .  A
C1169      H1176   1.084       .  S
C1170      C1171   1.420       .  A
C1171      C1172   1.404       .  A
C1171      C1178   1.509       .  S
C1172      C1173   1.405       .  A
C1172      H1177   1.084       .  S
C1173      C1174   1.419       .  A
C1174      C1175   1.508       .  S
C1175      H1179   1.111       .  S
C1175      H1180   1.110       .  S
C1175      H1181   1.110       .  S
C1178      H1182   1.110       .  S
C1178      H1183   1.110       .  S
C1178      H1184   1.111       .  S
C1185      C1186   1.405       .  A
C1185      C1190   1.403       .  A
C1185      H1192   1.085       .  S
C1186      C1187   1.419       .  A
C1187      C1188   1.404       .  A
C1187      C1194   1.509       .  S
C1188      C1189   1.405       .  A
C1188      H1193   1.085       .  S
C1189      C1190   1.418       .  A
C1190      C1191   1.509       .  S
C1191      H1195   1.111       .  S
C1191      H1196   1.110       .  S
C1191      H1197   1.110       .  S
C1194      H1198   1.110       .  S
C1194      H1199   1.110       .  S
C1194      H1200   1.111       .  S
C1201      C1202   1.407       .  A
C1201      C1206   1.405       .  A
C1201      H1208   1.084       .  S
C1202      C1203   1.419       .  A
C1203      C1204   1.405       .  A
C1203      C1210   1.508       .  S
C1204      C1205   1.406       .  A
C1204      H1209   1.084       .  S
C1205      C1206   1.420       .  A
C1206      C1207   1.509       .  S
C1207      H1211   1.111       .  S
C1207      H1212   1.110       .  S
C1207      H1213   1.110       .  S
C1210      H1214   1.109       .  S
C1210      H1215   1.110       .  S
C1210      H1216   1.111       .  S
C1217      C1218   1.406       .  A
C1217      C1222   1.404       .  A
C1217      H1224   1.083       .  S
C1218      C1219   1.419       .  A
C1219      C1220   1.406       .  A
C1219      C1226   1.508       .  S
C1220      C1221   1.406       .  A
C1220      H1225   1.084       .  S
C1221      C1222   1.419       .  A
C1222      C1223   1.509       .  S
C1223      H1227   1.111       .  S
C1223      H1228   1.110       .  S
C1223      H1229   1.110       .  S
C1226      H1230   1.109       .  S
C1226      H1231   1.111       .  S
C1226      H1232   1.111       .  S
C1233      C1234   1.404       .  A
C1233      C1238   1.399       .  A
C1233      H1240   1.084       .  S
C1234      C1235   1.415       .  A
C1235      C1236   1.405       .  A
C1235      C1242   1.507       .  S
C1236      C1237   1.403       .  A
C1236      H1241   1.084       .  S
C1237      C1238   1.414       .  A
C1238      C1239   1.510       .  S
C1239      H1243   1.110       .  S
C1239      H1244   1.110       .  S
C1239      H1245   1.109       .  S
C1242      H1246   1.109       .  S
C1242      H1247   1.111       .  S
C1242      H1248   1.111       .  S
C1249      C1250   1.404       .  A
C1249      C1254   1.401       .  A
C1249      H1256   1.084       .  S
C1250      C1251   1.415       .  A
C1251      C1252   1.407       .  A
C1251      C1258   1.507       .  S
C1252      C1253   1.406       .  A
C1252      H1257   1.084       .  S
C1253      C1254   1.416       .  A
C1254      C1255   1.510       .  S
C1255      H1259   1.111       .  S
C1255      H1260   1.111       .  S
C1255      H1261   1.109       .  S
C1258      H1262   1.110       .  S
C1258      H1263   1.110       .  S
C1258      H1264   1.111       .  S
C1265      C1266   1.406   1_545  A
C1265      C1270   1.403       .  A
C1265      H1272   1.084       .  S
C1266      C1267   1.419       .  A
C1267      C1268   1.407       .  A
C1267      C1274   1.508       .  S
C1268      C1269   1.407       .  A
C1268      H1273   1.084       .  S
C1269      C1270   1.418   1_565  A
C1270      C1271   1.509       .  S
C1271      H1275   1.111       .  S
C1271      H1276   1.110       .  S
C1271      H1277   1.110       .  S
C1274      H1278   1.110       .  S
C1274      H1279   1.110       .  S
C1274      H1280   1.111       .  S
C1281      C1282   1.404       .  A
C1281      C1286   1.399       .  A
C1281      H1288   1.083       .  S
C1282      C1283   1.421       .  A
C1283      C1284   1.407       .  A
C1283      C1290   1.508       .  S
C1284      C1285   1.403       .  A
C1284      H1289   1.084       .  S
C1285      C1286   1.416       .  A
C1286      C1287   1.510       .  S
C1287      H1291   1.111       .  S
C1287      H1292   1.111       .  S
C1287      H1293   1.109       .  S
C1290      H1294   1.110       .  S
C1290      H1295   1.110       .  S
C1290      H1296   1.111       .  S
C1297      C1298   1.407       .  A
C1297      C1302   1.408       .  A
C1297      H1304   1.083       .  S
C1298      C1299   1.420       .  A
C1299      C1300   1.406       .  A
C1299      C1306   1.509   1_545  S
C1300      C1301   1.406       .  A
C1300      H1305   1.083   1_545  S
C1301      C1302   1.420       .  A
C1302      C1303   1.507       .  S
C1303      H1307   1.111       .  S
C1303      H1308   1.110       .  S
C1303      H1309   1.110       .  S
C1306      H1310   1.110       .  S
C1306      H1311   1.111       .  S
C1306      H1312   1.111       .  S
C1313      C1314   1.406       .  A
C1313      C1318   1.403       .  A
C1313      H1320   1.085       .  S
C1314      C1315   1.414       .  A
C1315      C1316   1.405       .  A
C1315      C1322   1.507       .  S
C1316      C1317   1.409       .  A
C1316      H1321   1.084       .  S
C1317      C1318   1.419       .  A
C1318      C1319   1.509       .  S
C1319      H1323   1.111       .  S
C1319      H1324   1.110       .  S
C1319      H1325   1.110       .  S
C1322      H1326   1.109       .  S
C1322      H1327   1.110       .  S
C1322      H1328   1.111       .  S
C1329      C1330   1.403       .  A
C1329      C1334   1.400       .  A
C1329      H1336   1.083       .  S
C1330      C1331   1.416       .  A
C1331      C1332   1.404       .  A
C1331      C1338   1.508       .  S
C1332      C1333   1.404       .  A
C1332      H1337   1.084       .  S
C1333      C1334   1.416       .  A
C1334      C1335   1.509       .  S
C1335      H1339   1.111       .  S
C1335      H1340   1.111       .  S
C1335      H1341   1.110       .  S
C1338      H1342   1.109       .  S
C1338      H1343   1.111       .  S
C1338      H1344   1.111       .  S
C1345      C1346   1.406       .  A
C1345      C1350   1.404       .  A
C1345      H1352   1.084       .  S
C1346      C1347   1.420       .  A
C1347      C1348   1.404       .  A
C1347      C1354   1.508       .  S
C1348      C1349   1.403       .  A
C1348      H1353   1.084       .  S
C1349      C1350   1.416       .  A
C1350      C1351   1.508       .  S
C1351      H1355   1.111       .  S
C1351      H1356   1.110       .  S
C1351      H1357   1.110       .  S
C1354      H1358   1.110       .  S
C1354      H1359   1.110       .  S
C1354      H1360   1.111       .  S
C1361      C1362   1.403       .  A
C1361      C1366   1.401       .  A
C1361      H1368   1.084       .  S
C1362      C1363   1.415       .  A
C1363      C1364   1.403       .  A
C1363      C1370   1.508       .  S
C1364      C1365   1.406       .  A
C1364      H1369   1.084       .  S
C1365      C1366   1.418       .  A
C1366      C1367   1.509       .  S
C1367      H1371   1.111       .  S
C1367      H1372   1.110       .  S
C1367      H1373   1.110       .  S
C1370      H1374   1.109       .  S
C1370      H1375   1.110       .  S
C1370      H1376   1.111       .  S
C1377      C1378   1.404       .  A
C1377      C1382   1.402       .  A
C1377      H1384   1.084       .  S
C1378      C1379   1.415       .  A
C1379      C1380   1.401       .  A
C1379      C1386   1.508       .  S
C1380      C1381   1.403       .  A
C1380      H1385   1.084       .  S
C1381      C1382   1.415       .  A
C1382      C1383   1.508       .  S
C1383      H1387   1.111       .  S
C1383      H1388   1.110       .  S
C1383      H1389   1.111       .  S
C1386      H1390   1.110       .  S
C1386      H1391   1.109       .  S
C1386      H1392   1.111       .  S
C1393      C1394   1.410       .  A
C1393      C1398   1.405       .  A
C1393      H1400   1.084       .  S
C1394      C1395   1.415       .  A
C1395      C1396   1.397       .  A
C1395      C1402   1.509       .  S
C1396      C1397   1.406       .  A
C1396      H1401   1.083       .  S
C1397      C1398   1.415       .  A
C1398      C1399   1.508       .  S
C1399      H1403   1.111       .  S
C1399      H1404   1.109       .  S
C1399      H1405   1.111       .  S
C1402      H1406   1.109       .  S
C1402      H1407   1.110       .  S
C1402      H1408   1.111       .  S
C1409      C1410   1.404       .  A
C1409      C1414   1.402       .  A
C1409      H1416   1.084       .  S
C1410      C1411   1.419       .  A
C1411      C1412   1.407       .  A
C1411      C1418   1.507       .  S
C1412      C1413   1.405       .  A
C1412      H1417   1.084       .  S
C1413      C1414   1.420       .  A
C1414      C1415   1.510       .  S
C1415      H1419   1.111       .  S
C1415      H1420   1.110       .  S
C1415      H1421   1.110       .  S
C1418      H1422   1.110       .  S
C1418      H1423   1.110       .  S
C1418      H1424   1.111       .  S
C1425      C1426   1.407       .  A
C1425      C1430   1.407       .  A
C1425      H1432   1.084       .  S
C1426      C1427   1.420       .  A
C1427      C1428   1.400       .  A
C1427      C1434   1.509       .  S
C1428      C1429   1.403       .  A
C1428      H1433   1.084       .  S
C1429      C1430   1.419       .  A
C1430      C1431   1.508       .  S
C1431      H1435   1.111       .  S
C1431      H1436   1.110       .  S
C1431      H1437   1.111       .  S
C1434      H1438   1.110       .  S
C1434      H1439   1.110       .  S
C1434      H1440   1.111       .  S
C1441      C1442   1.404       .  A
C1441      C1446   1.402       .  A
C1441      H1448   1.084       .  S
C1442      C1443   1.420       .  A
C1443      C1444   1.406       .  A
C1443      C1450   1.508       .  S
C1444      C1445   1.404       .  A
C1444      H1449   1.084       .  S
C1445      C1446   1.419       .  A
C1446      C1447   1.509       .  S
C1447      H1451   1.111       .  S
C1447      H1452   1.110   1_565  S
C1447      H1453   1.110       .  S
C1450      H1454   1.110       .  S
C1450      H1455   1.110       .  S
C1450      H1456   1.111       .  S
C1457      C1458   1.406       .  A
C1457      C1462   1.405       .  A
C1457      H1464   1.084       .  S
C1458      C1459   1.418       .  A
C1459      C1460   1.401       .  A
C1459      C1466   1.509       .  S
C1460      C1461   1.405       .  A
C1460      H1465   1.084       .  S
C1461      C1462   1.419       .  A
C1462      C1463   1.508       .  S
C1463      H1467   1.111       .  S
C1463      H1468   1.110       .  S
C1463      H1469   1.110       .  S
C1466      H1470   1.110       .  S
C1466      H1471   1.110       .  S
C1466      H1472   1.111       .  S
C1473      C1474   1.407       .  A
C1473      C1478   1.407       .  A
C1473      H1480   1.082       .  S
C1474      C1475   1.414       .  A
C1475      C1476   1.401       .  A
C1475      C1482   1.509       .  S
C1476      C1477   1.408       .  A
C1476      H1481   1.081       .  S
C1477      C1478   1.416       .  A
C1478      C1479   1.507       .  S
C1479      H1483   1.111       .  S
C1479      H1484   1.110   1_565  S
C1479      H1485   1.110       .  S
C1482      H1486   1.110       .  S
C1482      H1487   1.111       .  S
C1482      H1488   1.111       .  S
C1489      C1490   1.405       .  A
C1489      C1494   1.403       .  A
C1489      H1496   1.084       .  S
C1490      C1491   1.418       .  A
C1491      C1492   1.403       .  A
C1491      C1498   1.509       .  S
C1492      C1493   1.405       .  A
C1492      H1497   1.084       .  S
C1493      C1494   1.418       .  A
C1494      C1495   1.508       .  S
C1495      H1499   1.111       .  S
C1495      H1500   1.110       .  S
C1495      H1501   1.110       .  S
C1498      H1502   1.110       .  S
C1498      H1503   1.110       .  S
C1498      H1504   1.111       .  S
C1505      C1506   1.404       .  A
C1505      C1510   1.402       .  A
C1505      H1512   1.083       .  S
C1506      C1507   1.419       .  A
C1507      C1508   1.406       .  A
C1507      C1514   1.508       .  S
C1508      C1509   1.406       .  A
C1508      H1513   1.083       .  S
C1509      C1510   1.420       .  A
C1510      C1511   1.510       .  S
C1511      H1515   1.111       .  S
C1511      H1516   1.110       .  S
C1511      H1517   1.110       .  S
C1514      H1518   1.109       .  S
C1514      H1519   1.110       .  S
C1514      H1520   1.111       .  S
C1521      C1522   1.404       .  A
C1521      C1526   1.404       .  A
C1521      H1528   1.084       .  S
C1522      C1523   1.417       .  A
C1523      C1524   1.404       .  A
C1523      C1530   1.509       .  S
C1524      C1525   1.406       .  A
C1524      H1529   1.084       .  S
C1525      C1526   1.420       .  A
C1526      C1527   1.508       .  S
C1527      H1531   1.111       .  S
C1527      H1532   1.110       .  S
C1527      H1533   1.110       .  S
C1530      H1534   1.110       .  S
C1530      H1535   1.110       .  S
C1530      H1536   1.111       .  S
C1537      C1538   1.402       .  A
C1537      C1542   1.406       .  A
C1537      H1544   1.086       .  S
C1538      C1539   1.418       .  A
C1539      C1540   1.403       .  A
C1539      C1546   1.509       .  S
C1540      C1541   1.405       .  A
C1540      H1545   1.085       .  S
C1541      C1542   1.420       .  A
C1542      C1543   1.508       .  S
C1543      H1547   1.111       .  S
C1543      H1548   1.110       .  S
C1543      H1549   1.110       .  S
C1546      H1550   1.109       .  S
C1546      H1551   1.111       .  S
C1546      H1552   1.111       .  S
C1553      C1554   1.404       .  A
C1553      C1558   1.406       .  A
C1553      H1560   1.085       .  S
C1554      C1555   1.413       .  A
C1555      C1556   1.398       .  A
C1555      C1562   1.510       .  S
C1556      C1557   1.404       .  A
C1556      H1561   1.084       .  S
C1557      C1558   1.416       .  A
C1558      C1559   1.507       .  S
C1559      H1563   1.111       .  S
C1559      H1564   1.111       .  S
C1559      H1565   1.110       .  S
C1562      H1566   1.109       .  S
C1562      H1567   1.110       .  S
C1562      H1568   1.110       .  S
C1569      C1570   1.405       .  A
C1569      C1574   1.406       .  A
C1569      H1576   1.084       .  S
C1570      C1571   1.416       .  A
C1571      C1572   1.399       .  A
C1571      C1578   1.509       .  S
C1572      C1573   1.404       .  A
C1572      H1577   1.085       .  S
C1573      C1574   1.416       .  A
C1574      C1575   1.507       .  S
C1575      H1579   1.111       .  S
C1575      H1580   1.110       .  S
C1575      H1581   1.110       .  S
C1578      H1582   1.109       .  S
C1578      H1583   1.110       .  S
C1578      H1584   1.111       .  S
C1585      C1586   1.404       .  A
C1585      C1590   1.405       .  A
C1585      H1592   1.084       .  S
C1586      C1587   1.418       .  A
C1587      C1588   1.406       .  A
C1587      C1594   1.509       .  S
C1588      C1589   1.407       .  A
C1588      H1593   1.083       .  S
C1589      C1590   1.421       .  A
C1590      C1591   1.508       .  S
C1591      H1595   1.111       .  S
C1591      H1596   1.110       .  S
C1591      H1597   1.110       .  S
C1594      H1598   1.109       .  S
C1594      H1599   1.111       .  S
C1594      H1600   1.111       .  S
C1601      C1602   1.408       .  A
C1601      C1606   1.403       .  A
C1601      H1608   1.084       .  S
C1602      C1603   1.417       .  A
C1603      C1604   1.405       .  A
C1603      C1610   1.508       .  S
C1604      C1605   1.406       .  A
C1604      H1609   1.083       .  S
C1605      C1606   1.415       .  A
C1606      C1607   1.508       .  S
C1607      H1611   1.111       .  S
C1607      H1612   1.110       .  S
C1607      H1613   1.110       .  S
C1610      H1614   1.110       .  S
C1610      H1615   1.111       .  S
C1610      H1616   1.111       .  S
C1617      C1618   1.405       .  A
C1617      C1622   1.403       .  A
C1617      H1624   1.083       .  S
C1618      C1619   1.420       .  A
C1619      C1620   1.406       .  A
C1619      C1626   1.508       .  S
C1620      C1621   1.403       .  A
C1620      H1625   1.084       .  S
C1621      C1622   1.419       .  A
C1622      C1623   1.510       .  S
C1623      H1627   1.111       .  S
C1623      H1628   1.110       .  S
C1623      H1629   1.110       .  S
C1626      H1630   1.110       .  S
C1626      H1631   1.110       .  S
C1626      H1632   1.111       .  S
C1633      C1634   1.406       .  A
C1633      C1638   1.402       .  A
C1633      H1640   1.083       .  S
C1634      C1635   1.422       .  A
C1635      C1636   1.404       .  A
C1635      C1642   1.508       .  S
C1636      C1637   1.399       .  A
C1636      H1641   1.083       .  S
C1637      C1638   1.416       .  A
C1638      C1639   1.510   1_565  S
C1639      H1643   1.111       .  S
C1639      H1644   1.111       .  S
C1639      H1645   1.109       .  S
C1642      H1646   1.110       .  S
C1642      H1647   1.110       .  S
C1642      H1648   1.111       .  S
C1649      C1650   1.405       .  A
C1649      C1654   1.406       .  A
C1649      H1656   1.084       .  S
C1650      C1651   1.417       .  A
C1651      C1652   1.402       .  A
C1651      C1658   1.509       .  S
C1652      C1653   1.405       .  A
C1652      H1657   1.083       .  S
C1653      C1654   1.418       .  A
C1654      C1655   1.508       .  S
C1655      H1659   1.111       .  S
C1655      H1660   1.111       .  S
C1655      H1661   1.109       .  S
C1658      H1662   1.110       .  S
C1658      H1663   1.110       .  S
C1658      H1664   1.111       .  S
C1665      C1666   1.406       .  A
C1665      C1670   1.405       .  A
C1665      H1672   1.085       .  S
C1666      C1667   1.415       .  A
C1667      C1668   1.405       .  A
C1667      C1674   1.508       .  S
C1668      C1669   1.410       .  A
C1668      H1673   1.085   1_565  S
C1669      C1670   1.417       .  A
C1670      C1671   1.507       .  S
C1671      H1675   1.111       .  S
C1671      H1676   1.111       .  S
C1671      H1677   1.110       .  S
C1674      H1678   1.110       .  S
C1674      H1679   1.110       .  S
C1674      H1680   1.111   1_565  S
C1681      C1682   1.406       .  A
C1681      C1686   1.402       .  A
C1681      H1688   1.084       .  S
C1682      C1683   1.418       .  A
C1683      C1684   1.404       .  A
C1683      C1690   1.508       .  S
C1684      C1685   1.406       .  A
C1684      H1689   1.084       .  S
C1685      C1686   1.417       .  A
C1686      C1687   1.509       .  S
C1687      H1691   1.111       .  S
C1687      H1692   1.110       .  S
C1687      H1693   1.109       .  S
C1690      H1694   1.110       .  S
C1690      H1695   1.109       .  S
C1690      H1696   1.111       .  S
C1697      C1698   1.404       .  A
C1697      C1702   1.403       .  A
C1697      H1704   1.084       .  S
C1698      C1699   1.420       .  A
C1699      C1700   1.406       .  A
C1699      C1706   1.508       .  S
C1700      C1701   1.405       .  A
C1700      H1705   1.083       .  S
C1701      C1702   1.422       .  A
C1702      C1703   1.510       .  S
C1703      H1707   1.111       .  S
C1703      H1708   1.110       .  S
C1703      H1709   1.110       .  S
C1706      H1710   1.111       .  S
C1706      H1711   1.110       .  S
C1706      H1712   1.111       .  S
C1713      C1714   1.405       .  A
C1713      C1718   1.404       .  A
C1713      H1720   1.085       .  S
C1714      C1715   1.416       .  A
C1715      C1716   1.402       .  A
C1715      C1722   1.508       .  S
C1716      C1717   1.405       .  A
C1716      H1721   1.085       .  S
C1717      C1718   1.416       .  A
C1718      C1719   1.508       .  S
C1719      H1723   1.111       .  S
C1719      H1724   1.111       .  S
C1719      H1725   1.109       .  S
C1722      H1726   1.110       .  S
C1722      H1727   1.110       .  S
C1722      H1728   1.111       .  S
C1729      C1730   1.406       .  A
C1729      C1734   1.406       .  A
C1729      H1736   1.084       .  S
C1730      C1731   1.418       .  A
C1731      C1732   1.402       .  A
C1731      C1738   1.509       .  S
C1732      C1733   1.405       .  A
C1732      H1737   1.084       .  S
C1733      C1734   1.418       .  A
C1734      C1735   1.508       .  S
C1735      H1739   1.111       .  S
C1735      H1740   1.111       .  S
C1735      H1741   1.109       .  S
C1738      H1742   1.110       .  S
C1738      H1743   1.110       .  S
C1738      H1744   1.111       .  S
C1745      C1746   1.406       .  A
C1745      C1750   1.399       .  A
C1745      H1752   1.085       .  S
C1746      C1747   1.416       .  A
C1747      C1748   1.404       .  A
C1747      C1754   1.507       .  S
C1748      C1749   1.406       .  A
C1748      H1753   1.087       .  S
C1749      C1750   1.417       .  A
C1750      C1751   1.510       .  S
C1751      H1755   1.111       .  S
C1751      H1756   1.110       .  S
C1751      H1757   1.109       .  S
C1754      H1758   1.110       .  S
C1754      H1759   1.110       .  S
C1754      H1760   1.111       .  S
C1761      C1762   1.404       .  A
C1761      C1766   1.399       .  A
C1761      H1768   1.084       .  S
C1762      C1763   1.419       .  A
C1763      C1764   1.407       .  A
C1763      C1770   1.507       .  S
C1764      C1765   1.404       .  A
C1764      H1769   1.084       .  S
C1765      C1766   1.419       .  A
C1766      C1767   1.511       .  S
C1767      H1771   1.111       .  S
C1767      H1772   1.111       .  S
C1767      H1773   1.110       .  S
C1770      H1774   1.110       .  S
C1770      H1775   1.110       .  S
C1770      H1776   1.111       .  S
C1777      C1778   1.406       .  A
C1777      C1782   1.406       .  A
C1777      H1784   1.084       .  S
C1778      C1779   1.420       .  A
C1779      C1780   1.405       .  A
C1779      C1786   1.508       .  S
C1780      C1781   1.405       .  A
C1780      H1785   1.083       .  S
C1781      C1782   1.420       .  A
C1782      C1783   1.509       .  S
C1783      H1787   1.111       .  S
C1783      H1788   1.111       .  S
C1783      H1789   1.110       .  S
C1786      H1790   1.110       .  S
C1786      H1791   1.110       .  S
C1786      H1792   1.111       .  S
C1793      C1794   1.409       .  A
C1793      C1798   1.406       .  A
C1793      H1800   1.084       .  S
C1794      C1795   1.418       .  A
C1795      C1796   1.403       .  A
C1795      C1802   1.509       .  S
C1796      C1797   1.406       .  A
C1796      H1801   1.083       .  S
C1797      C1798   1.415       .  A
C1798      C1799   1.507       .  S
C1799      H1803   1.111       .  S
C1799      H1804   1.110       .  S
C1799      H1805   1.110       .  S
C1802      H1806   1.110       .  S
C1802      H1807   1.110       .  S
C1802      H1808   1.111       .  S
C1809      C1810   1.406       .  A
C1809      C1814   1.404       .  A
C1809      H1816   1.085       .  S
C1810      C1811   1.417       .  A
C1811      C1812   1.404       .  A
C1811      C1818   1.508       .  S
C1812      C1813   1.405       .  A
C1812      H1817   1.084       .  S
C1813      C1814   1.419       .  A
C1814      C1815   1.509       .  S
C1815      H1819   1.111       .  S
C1815      H1820   1.110       .  S
C1815      H1821   1.109       .  S
C1818      H1822   1.111       .  S
C1818      H1823   1.109       .  S
C1818      H1824   1.111       .  S
C1825      C1826   1.404       .  A
C1825      C1830   1.407       .  A
C1825      H1832   1.084       .  S
C1826      C1827   1.418       .  A
C1827      C1828   1.401       .  A
C1827      C1834   1.510       .  S
C1828      C1829   1.403       .  A
C1828      H1833   1.084       .  S
C1829      C1830   1.419       .  A
C1830      C1831   1.508       .  S
C1831      H1835   1.111       .  S
C1831      H1836   1.110       .  S
C1831      H1837   1.110       .  S
C1834      H1838   1.111       .  S
C1834      H1839   1.109       .  S
C1834      H1840   1.111       .  S
C1841      C1842   1.409       .  A
C1841      C1846   1.408       .  A
C1841      H1848   1.068       .  S
C1842      C1843   1.418       .  A
C1843      C1844   1.407       .  A
C1843      C1850   1.508       .  S
C1844      C1845   1.408       .  A
C1844      H1849   1.073       .  S
C1845      C1846   1.418       .  A
C1846      C1847   1.509       .  S
C1847      H1851   1.109       .  S
C1847      H1852   1.110       .  S
C1847      H1853   1.111       .  S
C1850      H1854   1.110       .  S
C1850      H1855   1.110       .  S
C1850      H1856   1.110       .  S
C1857      C1858   1.404       .  A
C1857      C1862   1.405       .  A
C1857      H1864   1.082       .  S
C1858      C1859   1.419       .  A
C1859      C1860   1.402       .  A
C1859      C1866   1.509       .  S
C1860      C1861   1.404       .  A
C1860      H1865   1.082       .  S
C1861      C1862   1.420       .  A
C1862      C1863   1.508       .  S
C1863      H1867   1.111       .  S
C1863      H1868   1.110       .  S
C1863      H1869   1.110       .  S
C1866      H1870   1.110       .  S
C1866      H1871   1.110       .  S
C1866      H1872   1.111       .  S
C1873      C1874   1.405       .  A
C1873      C1878   1.408       .  A
C1873      H1880   1.085       .  S
C1874      C1875   1.417       .  A
C1875      C1876   1.398       .  A
C1875      C1882   1.511       .  S
C1876      C1877   1.403       .  A
C1876      H1881   1.085       .  S
C1877      C1878   1.417       .  A
C1878      C1879   1.507       .  S
C1879      H1883   1.111       .  S
C1879      H1884   1.110       .  S
C1879      H1885   1.110       .  S
C1882      H1886   1.109       .  S
C1882      H1887   1.111       .  S
C1882      H1888   1.111       .  S
C1889      C1890   1.404       .  A
C1889      C1894   1.399       .  A
C1889      H1896   1.082       .  S
C1890      C1891   1.418       .  A
C1891      C1892   1.411       .  A
C1891      C1898   1.507       .  S
C1892      C1893   1.407       .  A
C1892      H1897   1.082       .  S
C1893      C1894   1.416       .  A
C1894      C1895   1.510       .  S
C1895      H1899   1.111       .  S
C1895      H1900   1.111       .  S
C1895      H1901   1.109   1_565  S
C1898      H1902   1.110       .  S
C1898      H1903   1.110       .  S
C1898      H1904   1.111       .  S
C1905      C1906   1.405       .  A
C1905      C1910   1.406       .  A
C1905      H1912   1.083       .  S
C1906      C1907   1.416       .  A
C1907      C1908   1.403       .  A
C1907      C1914   1.509       .  S
C1908      C1909   1.405       .  A
C1908      H1913   1.084       .  S
C1909      C1910   1.415       .  A
C1910      C1911   1.507       .  S
C1911      H1915   1.111       .  S
C1911      H1916   1.109       .  S
C1911      H1917   1.111       .  S
C1914      H1918   1.111       .  S
C1914      H1919   1.110       .  S
C1914      H1920   1.111       .  S
C1921      C1922   1.405       .  A
C1921      C1926   1.407       .  A
C1921      H1928   1.085       .  S
C1922      C1923   1.421       .  A
C1923      C1924   1.401       .  A
C1923      C1930   1.510       .  S
C1924      C1925   1.402       .  A
C1924      H1929   1.086       .  S
C1925      C1926   1.420       .  A
C1926      C1927   1.508       .  S
C1927      H1931   1.111       .  S
C1927      H1932   1.110       .  S
C1927      H1933   1.110       .  S
C1930      H1934   1.110       .  S
C1930      H1935   1.110       .  S
C1930      H1936   1.111       .  S
C1937      C1938   1.405       .  A
C1937      C1942   1.401       .  A
C1937      H1944   1.082       .  S
C1938      C1939   1.418       .  A
C1939      C1940   1.406       .  A
C1939      C1946   1.508       .  S
C1940      C1941   1.407       .  A
C1940      H1945   1.082       .  S
C1941      C1942   1.419       .  A
C1942      C1943   1.509       .  S
C1943      H1947   1.111       .  S
C1943      H1948   1.110       .  S
C1943      H1949   1.110       .  S
C1946      H1950   1.110       .  S
C1946      H1951   1.110       .  S
C1946      H1952   1.111       .  S
C1953      C1954   1.403       .  A
C1953      C1958   1.402       .  A
C1953      H1960   1.083       .  S
C1954      C1955   1.415       .  A
C1955      C1956   1.401       .  A
C1955      C1962   1.509       .  S
C1956      C1957   1.406       .  A
C1956      H1961   1.084       .  S
C1957      C1958   1.418       .  A
C1958      C1959   1.508       .  S
C1959      H1963   1.111       .  S
C1959      H1964   1.110       .  S
C1959      H1965   1.110       .  S
C1962      H1966   1.110       .  S
C1962      H1967   1.110       .  S
C1962      H1968   1.111       .  S
C1969      C1970   1.406       .  A
C1969      C1974   1.408       .  A
C1969      H1976   1.073       .  S
C1970      C1971   1.417       .  A
C1971      C1972   1.402       .  A
C1971      C1978   1.509       .  S
C1972      C1973   1.404       .  A
C1972      H1977   1.077       .  S
C1973      C1974   1.417       .  A
C1974      C1975   1.508       .  S
C1975      H1979   1.110       .  S
C1975      H1980   1.109       .  S
C1975      H1981   1.111       .  S
C1978      H1982   1.111       .  S
C1978      H1983   1.110       .  S
C1978      H1984   1.110       .  S
C1985      C1986   1.405       .  A
C1985      C1990   1.404       .  A
C1985      H1992   1.085       .  S
C1986      C1987   1.419       .  A
C1987      C1988   1.404       .  A
C1987      C1994   1.509       .  S
C1988      C1989   1.404       .  A
C1988      H1993   1.085       .  S
C1989      C1990   1.417       .  A
C1990      C1991   1.508       .  S
C1991      H1995   1.111       .  S
C1991      H1996   1.110       .  S
C1991      H1997   1.110       .  S
C1994      H1998   1.109       .  S
C1994      H1999   1.110       .  S
C1994      H2000   1.111       .  S
C2001      C2002   1.404       .  A
C2001      C2006   1.404       .  A
C2001      H2008   1.084       .  S
C2002      C2003   1.414       .  A
C2003      C2004   1.401       .  A
C2003      C2010   1.509       .  S
C2004      C2005   1.404       .  A
C2004      H2009   1.084       .  S
C2005      C2006   1.415       .  A
C2006      C2007   1.507       .  S
C2007      H2011   1.111       .  S
C2007      H2012   1.110       .  S
C2007      H2013   1.110       .  S
C2010      H2014   1.111       .  S
C2010      H2015   1.109       .  S
C2010      H2016   1.111       .  S
C2017      C2018   1.404       .  A
C2017      C2022   1.404       .  A
C2017      H2024   1.084       .  S
C2018      C2019   1.421       .  A
C2019      C2020   1.407       .  A
C2019      C2026   1.508       .  S
C2020      C2021   1.404       .  A
C2020      H2025   1.083       .  S
C2021      C2022   1.422       .  A
C2022      C2023   1.510       .  S
C2023      H2027   1.111       .  S
C2023      H2028   1.110       .  S
C2023      H2029   1.110       .  S
C2026      H2030   1.110       .  S
C2026      H2031   1.110       .  S
C2026      H2032   1.111       .  S
C2033      C2034   1.403       .  A
C2033      C2038   1.403       .  A
C2033      H2040   1.084       .  S
C2034      C2035   1.414       .  A
C2035      C2036   1.400       .  A
C2035      C2042   1.509       .  S
C2036      C2037   1.405       .  A
C2036      H2041   1.083       .  S
C2037      C2038   1.419       .  A
C2038      C2039   1.508       .  S
C2039      H2043   1.111       .  S
C2039      H2044   1.110       .  S
C2039      H2045   1.110       .  S
C2042      H2046   1.111       .  S
C2042      H2047   1.109       .  S
C2042      H2048   1.111       .  S
C2049      C2050   1.404       .  A
C2049      C2054   1.400       .  A
C2049      H2056   1.084       .  S
C2050      C2051   1.419       .  A
C2051      C2052   1.407       .  A
C2051      C2058   1.508       .  S
C2052      C2053   1.406       .  A
C2052      H2057   1.084       .  S
C2053      C2054   1.419       .  A
C2054      C2055   1.509       .  S
C2055      H2059   1.111       .  S
C2055      H2060   1.109       .  S
C2055      H2061   1.110       .  S
C2058      H2062   1.110       .  S
C2058      H2063   1.110       .  S
C2058      H2064   1.111       .  S
C2065      C2066   1.404       .  A
C2065      C2070   1.403       .  A
C2065      H2072   1.084       .  S
C2066      C2067   1.419       .  A
C2067      C2068   1.407       .  A
C2067      C2074   1.508       .  S
C2068      C2069   1.406       .  A
C2068      H2073   1.084       .  S
C2069      C2070   1.419       .  A
C2070      C2071   1.509       .  S
C2071      H2075   1.111       .  S
C2071      H2076   1.110       .  S
C2071      H2077   1.109       .  S
C2074      H2078   1.110       .  S
C2074      H2079   1.110       .  S
C2074      H2080   1.111       .  S
C2081      C2082   1.409       .  A
C2081      C2086   1.406       .  A
C2081      H2088   1.083       .  S
C2082      C2083   1.416       .  A
C2083      C2084   1.400       .  A
C2083      C2090   1.509       .  S
C2084      C2085   1.407       .  A
C2084      H2089   1.084       .  S
C2085      C2086   1.416       .  A
C2086      C2087   1.508   1_565  S
C2087      H2091   1.111   1_545  S
C2087      H2092   1.110   1_545  S
C2087      H2093   1.110       .  S
C2090      H2094   1.110       .  S
C2090      H2095   1.110       .  S
C2090      H2096   1.111       .  S
C2097      C2098   1.407       .  A
C2097      C2102   1.405       .  A
C2097      H2104   1.084       .  S
C2098      C2099   1.418       .  A
C2099      C2100   1.399       .  A
C2099      C2106   1.510       .  S
C2100      C2101   1.404       .  A
C2100      H2105   1.084       .  S
C2101      C2102   1.417       .  A
C2102      C2103   1.508       .  S
C2103      H2107   1.111       .  S
C2103      H2108   1.109       .  S
C2103      H2109   1.110       .  S
C2106      H2110   1.110       .  S
C2106      H2111   1.110       .  S
C2106      H2112   1.111       .  S
C2113      C2114   1.404       .  A
C2113      C2118   1.402       .  A
C2113      H2120   1.085       .  S
C2114      C2115   1.416       .  A
C2115      C2116   1.406       .  A
C2115      C2122   1.507       .  S
C2116      C2117   1.407       .  A
C2116      H2121   1.084       .  S
C2117      C2118   1.420       .  A
C2118      C2119   1.510       .  S
C2119      H2123   1.111       .  S
C2119      H2124   1.110       .  S
C2119      H2125   1.110       .  S
C2122      H2126   1.110       .  S
C2122      H2127   1.110       .  S
C2122      H2128   1.111       .  S
C2129      C2130   1.403       .  A
C2129      C2134   1.405       .  A
C2129      H2136   1.083       .  S
C2130      C2131   1.421       .  A
C2131      C2132   1.403       .  A
C2131      C2138   1.510       .  S
C2132      C2133   1.403       .  A
C2132      H2137   1.083       .  S
C2133      C2134   1.421       .  A
C2134      C2135   1.509       .  S
C2135      H2139   1.111       .  S
C2135      H2140   1.110       .  S
C2135      H2141   1.110       .  S
C2138      H2142   1.110       .  S
C2138      H2143   1.110       .  S
C2138      H2144   1.111       .  S
C2145      C2146   1.408       .  A
C2145      C2150   1.404       .  A
C2145      H2152   1.085       .  S
C2146      C2147   1.415       .  A
C2147      C2148   1.404       .  A
C2147      C2154   1.507       .  S
C2148      C2149   1.407       .  A
C2148      H2153   1.084       .  S
C2149      C2150   1.415       .  A
C2150      C2151   1.508       .  S
C2151      H2155   1.111       .  S
C2151      H2156   1.110       .  S
C2151      H2157   1.109       .  S
C2154      H2158   1.110       .  S
C2154      H2159   1.111   1_545  S
C2154      H2160   1.111       .  S
C2161      C2162   1.405       .  A
C2161      C2166   1.405       .  A
C2161      H2168   1.086       .  S
C2162      C2163   1.416       .  A
C2163      C2164   1.402       .  A
C2163      C2170   1.509       .  S
C2164      C2165   1.407       .  A
C2164      H2169   1.085       .  S
C2165      C2166   1.419       .  A
C2166      C2167   1.508       .  S
C2167      H2171   1.111       .  S
C2167      H2172   1.110       .  S
C2167      H2173   1.110       .  S
C2170      H2174   1.110       .  S
C2170      H2175   1.110       .  S
C2170      H2176   1.111       .  S
C2177      C2178   1.410       .  A
C2177      C2182   1.408       .  A
C2177      H2184   1.086       .  S
C2178      C2179   1.419       .  A
C2179      C2180   1.403       .  A
C2179      C2186   1.509       .  S
C2180      C2181   1.405       .  A
C2180      H2185   1.085       .  S
C2181      C2182   1.416       .  A
C2182      C2183   1.507       .  S
C2183      H2187   1.111       .  S
C2183      H2188   1.109       .  S
C2183      H2189   1.110       .  S
C2186      H2190   1.110       .  S
C2186      H2191   1.110       .  S
C2186      H2192   1.111       .  S
C2193      C2194   1.404       .  A
C2193      C2198   1.403       .  A
C2193      H2200   1.085       .  S
C2194      C2195   1.416       .  A
C2195      C2196   1.400       .  A
C2195      C2202   1.510       .  S
C2196      C2197   1.405       .  A
C2196      H2201   1.085       .  S
C2197      C2198   1.418       .  A
C2198      C2199   1.508       .  S
C2199      H2203   1.111       .  S
C2199      H2204   1.110       .  S
C2199      H2205   1.110       .  S
C2202      H2206   1.109       .  S
C2202      H2207   1.111       .  S
C2202      H2208   1.111       .  S
C2209      C2210   1.408       .  A
C2209      C2214   1.404       .  A
C2209      H2216   1.081       .  S
C2210      C2211   1.416       .  A
C2211      C2212   1.406       .  A
C2211      C2218   1.508       .  S
C2212      C2213   1.409       .  A
C2212      H2217   1.080       .  S
C2213      C2214   1.418       .  A
C2214      C2215   1.509       .  S
C2215      H2219   1.111       .  S
C2215      H2220   1.110       .  S
C2215      H2221   1.110       .  S
C2218      H2222   1.110       .  S
C2218      H2223   1.110       .  S
C2218      H2224   1.110       .  S
C2225      C2226   1.405       .  A
C2225      C2230   1.406       .  A
C2225      H2232   1.081       .  S
C2226      C2227   1.414       .  A
C2227      C2228   1.403       .  A
C2227      C2234   1.508       .  S
C2228      C2229   1.406       .  A
C2228      H2233   1.081       .  S
C2229      C2230   1.420       .  A
C2230      C2231   1.508       .  S
C2231      H2235   1.111       .  S
C2231      H2236   1.110       .  S
C2231      H2237   1.110       .  S
C2234      H2238   1.111       .  S
C2234      H2239   1.109       .  S
C2234      H2240   1.111       .  S
C2241      C2242   1.403       .  A
C2241      C2246   1.404       .  A
C2241      H2248   1.084       .  S
C2242      C2243   1.416       .  A
C2243      C2244   1.401       .  A
C2243      C2250   1.509       .  S
C2244      C2245   1.405       .  A
C2244      H2249   1.084       .  S
C2245      C2246   1.419       .  A
C2246      C2247   1.509       .  S
C2247      H2251   1.111       .  S
C2247      H2252   1.110       .  S
C2247      H2253   1.111       .  S
C2250      H2254   1.109       .  S
C2250      H2255   1.111       .  S
C2250      H2256   1.111       .  S
C2257      C2258   1.407       .  A
C2257      C2262   1.405       .  A
C2257      H2264   1.083       .  S
C2258      C2259   1.419       .  A
C2259      C2260   1.400       .  A
C2259      C2266   1.510       .  S
C2260      C2261   1.406       .  A
C2260      H2265   1.083       .  S
C2261      C2262   1.416       .  A
C2262      C2263   1.507       .  S
C2263      H2267   1.111       .  S
C2263      H2268   1.110       .  S
C2263      H2269   1.110       .  S
C2266      H2270   1.110       .  S
C2266      H2271   1.110       .  S
C2266      H2272   1.111       .  S
C2273      C2274   1.403       .  A
C2273      C2278   1.399       .  A
C2273      H2280   1.086       .  S
C2274      C2275   1.414       .  A
C2275      C2276   1.405       .  A
C2275      C2282   1.507       .  S
C2276      C2277   1.406       .  A
C2276      H2281   1.085       .  S
C2277      C2278   1.417       .  A
C2278      C2279   1.509       .  S
C2279      H2283   1.111       .  S
C2279      H2284   1.109       .  S
C2279      H2285   1.110       .  S
C2282      H2286   1.110       .  S
C2282      H2287   1.110       .  S
C2282      H2288   1.111       .  S
C2289      C2290   1.404       .  A
C2289      C2294   1.401       .  A
C2289      H2296   1.083       .  S
C2290      C2291   1.417       .  A
C2291      C2292   1.404       .  A
C2291      C2298   1.509       .  S
C2292      C2293   1.407       .  A
C2292      H2297   1.084       .  S
C2293      C2294   1.418       .  A
C2294      C2295   1.508       .  S
C2295      H2299   1.111       .  S
C2295      H2300   1.110       .  S
C2295      H2301   1.110       .  S
C2298      H2302   1.109       .  S
C2298      H2303   1.111       .  S
C2298      H2304   1.111       .  S
C2305      C2306   1.408       .  A
C2305      C2310   1.403       .  A
C2305      H2312   1.082       .  S
C2306      C2307   1.416       .  A
C2307      C2308   1.402       .  A
C2307      C2314   1.508       .  S
C2308      C2309   1.406       .  A
C2308      H2313   1.082       .  S
C2309      C2310   1.414       .  A
C2310      C2311   1.508       .  S
C2311      H2315   1.111       .  S
C2311      H2316   1.111       .  S
C2311      H2317   1.109       .  S
C2314      H2318   1.110       .  S
C2314      H2319   1.111       .  S
C2314      H2320   1.111       .  S
C2321      C2322   1.407       .  A
C2321      C2326   1.401       .  A
C2321      H2328   1.083       .  S
C2322      C2323   1.415       .  A
C2323      C2324   1.406       .  A
C2323      C2330   1.507       .  S
C2324      C2325   1.408       .  A
C2324      H2329   1.083       .  S
C2325      C2326   1.416       .  A
C2326      C2327   1.509       .  S
C2327      H2331   1.111       .  S
C2327      H2332   1.110       .  S
C2327      H2333   1.110       .  S
C2330      H2334   1.110       .  S
C2330      H2335   1.110       .  S
C2330      H2336   1.111       .  S
C2337      C2338   1.403       .  A
C2337      C2342   1.401       .  A
C2337      H2344   1.083       .  S
C2338      C2339   1.420       .  A
C2339      C2340   1.401       .  A
C2339      C2346   1.509       .  S
C2340      C2341   1.403       .  A
C2340      H2345   1.083       .  S
C2341      C2342   1.420       .  A
C2342      C2343   1.510       .  S
C2343      H2347   1.111       .  S
C2343      H2348   1.110       .  S
C2343      H2349   1.110       .  S
C2346      H2350   1.110       .  S
C2346      H2351   1.110       .  S
C2346      H2352   1.111       .  S
C2353      C2354   1.405       .  A
C2353      C2358   1.401       .  A
C2353      H2360   1.084       .  S
C2354      C2355   1.415       .  A
C2355      C2356   1.403       .  A
C2355      C2362   1.508       .  S
C2356      C2357   1.409       .  A
C2356      H2361   1.084       .  S
C2357      C2358   1.416       .  A
C2358      C2359   1.508       .  S
C2359      H2363   1.111       .  S
C2359      H2364   1.111       .  S
C2359      H2365   1.110       .  S
C2362      H2366   1.110       .  S
C2362      H2367   1.110       .  S
C2362      H2368   1.111       .  S
C2369      C2370   1.403       .  A
C2369      C2374   1.399       .  A
C2369      H2376   1.083       .  S
C2370      C2371   1.413       .  A
C2371      C2372   1.404       .  A
C2371      C2378   1.507       .  S
C2372      C2373   1.405       .  A
C2372      H2377   1.082       .  S
C2373      C2374   1.414       .  A
C2374      C2375   1.510       .  S
C2375      H2379   1.111       .  S
C2375      H2380   1.111       .  S
C2375      H2381   1.109       .  S
C2378      H2382   1.110       .  S
C2378      H2383   1.110       .  S
C2378      H2384   1.111       .  S
C2385      C2386   1.404       .  A
C2385      C2390   1.401       .  A
C2385      H2392   1.098       .  S
C2386      C2387   1.413       .  A
C2387      C2388   1.400       .  A
C2387      C2394   1.507       .  S
C2388      C2389   1.401       .  A
C2388      H2393   1.091       .  S
C2389      C2390   1.415       .  A
C2390      C2391   1.509       .  S
C2391      H2395   1.112       .  S
C2391      H2396   1.109       .  S
C2391      H2397   1.110       .  S
C2394      H2398   1.111       .  S
C2394      H2399   1.109       .  S
C2394      H2400   1.111       .  S
C2401      C2402   1.405       .  A
C2401      C2406   1.403       .  A
C2401      H2408   1.084       .  S
C2402      C2403   1.418       .  A
C2403      C2404   1.402       .  A
C2403      C2410   1.508       .  S
C2404      C2405   1.403       .  A
C2404      H2409   1.085       .  S
C2405      C2406   1.418       .  A
C2406      C2407   1.509       .  S
C2407      H2411   1.111       .  S
C2407      H2412   1.110       .  S
C2407      H2413   1.110       .  S
C2410      H2414   1.110       .  S
C2410      H2415   1.110       .  S
C2410      H2416   1.111       .  S
C2417      C2418   1.401       .  A
C2417      C2422   1.395       .  A
C2417      H2424   1.102   1_565  S
C2418      C2419   1.417       .  A
C2419      C2420   1.406       .  A
C2419      C2426   1.507       .  S
C2420      C2421   1.404       .  A
C2420      H2425   1.095       .  S
C2421      C2422   1.418       .  A
C2422      C2423   1.511       .  S
C2423      H2427   1.113   1_565  S
C2423      H2428   1.110       .  S
C2423      H2429   1.108       .  S
C2426      H2430   1.110       .  S
C2426      H2431   1.110       .  S
C2426      H2432   1.112       .  S
C2433      C2434   1.401       .  A
C2433      C2438   1.398       .  A
C2433      H2440   1.087       .  S
C2434      C2435   1.413       .  A
C2435      C2436   1.405       .  A
C2435      C2442   1.507       .  S
C2436      C2437   1.406       .  A
C2436      H2441   1.086       .  S
C2437      C2438   1.419       .  A
C2438      C2439   1.511       .  S
C2439      H2443   1.112       .  S
C2439      H2444   1.109   1_565  S
C2439      H2445   1.111       .  S
C2442      H2446   1.110       .  S
C2442      H2447   1.110       .  S
C2442      H2448   1.111       .  S
C2449      C2450   1.406       .  A
C2449      C2454   1.403       .  A
C2449      H2456   1.086       .  S
C2450      C2451   1.419       .  A
C2451      C2452   1.404       .  A
C2451      C2458   1.509   1_545  S
C2452      C2453   1.406       .  A
C2452      H2457   1.083   1_545  S
C2453      C2454   1.418       .  A
C2454      C2455   1.508       .  S
C2455      H2459   1.111       .  S
C2455      H2460   1.110       .  S
C2455      H2461   1.110       .  S
C2458      H2462   1.110       .  S
C2458      H2463   1.110       .  S
C2458      H2464   1.111       .  S
C2465      C2466   1.409       .  A
C2465      C2470   1.405       .  A
C2465      H2472   1.083       .  S
C2466      C2467   1.417       .  A
C2467      C2468   1.402       .  A
C2467      C2474   1.509       .  S
C2468      C2469   1.406       .  A
C2468      H2473   1.081       .  S
C2469      C2470   1.414       .  A
C2470      C2471   1.507       .  S
C2471      H2475   1.111       .  S
C2471      H2476   1.109       .  S
C2471      H2477   1.110   1_554  S
C2474      H2478   1.110       .  S
C2474      H2479   1.110       .  S
C2474      H2480   1.111       .  S
C2481      C2482   1.404       .  A
C2481      C2486   1.398       .  A
C2481      H2488   1.092       .  S
C2482      C2483   1.416       .  A
C2483      C2484   1.406       .  A
C2483      C2490   1.507       .  S
C2484      C2485   1.407       .  A
C2484      H2489   1.078       .  S
C2485      C2486   1.413       .  A
C2486      C2487   1.509       .  S
C2487      H2491   1.112   1_565  S
C2487      H2492   1.109       .  S
C2487      H2493   1.110       .  S
C2490      H2494   1.111       .  S
C2490      H2495   1.110       .  S
C2490      H2496   1.110       .  S
C2497      C2498   1.402       .  A
C2497      C2502   1.398       .  A
C2497      H2504   1.084       .  S
C2498      C2499   1.416       .  A
C2499      C2500   1.408       .  A
C2499      C2506   1.507       .  S
C2500      C2501   1.408       .  A
C2500      H2505   1.084       .  S
C2501      C2502   1.421       .  A
C2502      C2503   1.511       .  S
C2503      H2507   1.111       .  S
C2503      H2508   1.110       .  S
C2503      H2509   1.110       .  S
C2506      H2510   1.111       .  S
C2506      H2511   1.110       .  S
C2506      H2512   1.111       .  S
C2513      C2514   1.406       .  A
C2513      C2518   1.407       .  A
C2513      H2520   1.084       .  S
C2514      C2515   1.418       .  A
C2515      C2516   1.401       .  A
C2515      C2522   1.510       .  S
C2516      C2517   1.402       .  A
C2516      H2521   1.084       .  S
C2517      C2518   1.414       .  A
C2518      C2519   1.507       .  S
C2519      H2523   1.111       .  S
C2519      H2524   1.110       .  S
C2519      H2525   1.110       .  S
C2522      H2526   1.111       .  S
C2522      H2527   1.109       .  S
C2522      H2528   1.111       .  S
C2529      C2530   1.406   1_565  A
C2529      C2534   1.403       .  A
C2529      H2536   1.085       .  S
C2530      C2531   1.418       .  A
C2531      C2532   1.406       .  A
C2531      C2538   1.508       .  S
C2532      C2533   1.406   1_545  A
C2532      H2537   1.084       .  S
C2533      C2534   1.418       .  A
C2534      C2535   1.509       .  S
C2535      H2539   1.111       .  S
C2535      H2540   1.110       .  S
C2535      H2541   1.110       .  S
C2538      H2542   1.110       .  S
C2538      H2543   1.110       .  S
C2538      H2544   1.111       .  S
C2545      C2546   1.404       .  A
C2545      C2550   1.405       .  A
C2545      H2552   1.085       .  S
C2546      C2547   1.420       .  A
C2547      C2548   1.402       .  A
C2547      C2554   1.509       .  S
C2548      C2549   1.404       .  A
C2548      H2553   1.085       .  S
C2549      C2550   1.420       .  A
C2550      C2551   1.509       .  S
C2551      H2555   1.111       .  S
C2551      H2556   1.110       .  S
C2551      H2557   1.110       .  S
C2554      H2558   1.110       .  S
C2554      H2559   1.110       .  S
C2554      H2560   1.111       .  S
C2561      C2562   1.404       .  A
C2561      C2566   1.407       .  A
C2561      H2568   1.086       .  S
C2562      C2563   1.422       .  A
C2563      C2564   1.403       .  A
C2563      C2570   1.510   1_565  S
C2564      C2565   1.404       .  A
C2564      H2569   1.086       .  S
C2565      C2566   1.421       .  A
C2566      C2567   1.508       .  S
C2567      H2571   1.111       .  S
C2567      H2572   1.110       .  S
C2567      H2573   1.110       .  S
C2570      H2574   1.110       .  S
C2570      H2575   1.110       .  S
C2570      H2576   1.111       .  S
