geometry optimzed in LAMMPS
_audit_creation_date              2020-12-01 
_audit_creation_method            'lammps2cif' 
_symmetry_space_group_name_H-M    'P1' 
_symmetry_Int_Tables_number       1 
_symmetry_cell_setting            triclinic 
loop_ 
_symmetry_equiv_pos_as_xyz 
  x,y,z 
_cell_length_a                    49.06721144 
_cell_length_b                    49.29521992318437 
_cell_length_c                    49.22902576546687 
_cell_angle_alpha                 90.13044522273387 
_cell_angle_beta                  89.93919979317573 
_cell_angle_gamma                 90.39763946285312 
loop_ 
_atom_site_label 
_atom_site_type_symbol 
_atom_site_fract_x 
_atom_site_fract_y 
_atom_site_fract_z 
_atom_site_charge 
C1          C  0.57346598  0.88915682  0.70145381     0.80800
N2          N  0.54852163  0.87726828  0.70084377    -0.77500
C3          C  0.52556827  0.89233402  0.69970703     0.83300
N4          N  0.52780709  0.91974558  0.69957486    -0.77400
C5          C  0.55259695  0.93211417  0.70048998     0.83400
N6          N  0.57569381  0.91674402  0.70104366    -0.79100
C7          C  0.57814800  0.00323283  0.69892494     0.80800
N8          N  0.57797498  0.97563341  0.69922597    -0.77500
C9          C  0.55379196  0.96200126  0.70029147     0.83300
N10         N  0.52999800  0.97614198  0.70141958    -0.77400
C11         C  0.53010938  0.00369352  0.70121988     0.83400
N12         N  0.55429957  0.01698040  0.69989316    -0.79100
C13         C  0.93268252  0.70042652  0.51705412     0.80800
N14         N  0.96028182  0.70378879  0.51869070    -0.77500
C15         C  0.97526883  0.70616851  0.49540247     0.83300
N16         N  0.96245946  0.70530508  0.47086504    -0.77400
C17         C  0.93503240  0.70210744  0.46924618     0.83400
N18         N  0.92042489  0.69958290  0.49239604    -0.79100
C19         C  0.04763084  0.71215323  0.51840148     0.80800
N20         N  0.06040783  0.71322343  0.49407314    -0.77500
C21         C  0.04621939  0.71191168  0.47062609     0.83300
N22         N  0.01868602  0.70983570  0.47154578    -0.77400
C23         C  0.00531333  0.70885927  0.49578553     0.83400
N24         N  0.01988608  0.70977892  0.51946090    -0.79100
C25         C  0.55075212  0.68271245  0.35884688     0.80800
N26         N  0.56386630  0.68012669  0.38292988    -0.77500
C27         C  0.55008238  0.68170490  0.40674987     0.83300
N28         N  0.52280146  0.68612336  0.40623367    -0.77400
C29         C  0.50935846  0.68900797  0.38227245     0.83400
N30         N  0.52344137  0.68740711  0.35844547    -0.79100
C31         C  0.43814451  0.70191319  0.36033003     0.80800
N32         N  0.42611791  0.70702888  0.38460443    -0.77500
C33         C  0.44061832  0.70628978  0.40799308     0.83300
N34         N  0.46756515  0.70024698  0.40689505    -0.77400
C35         C  0.47996111  0.69504754  0.38268379     0.83400
N36         N  0.46514995  0.69584805  0.35928622    -0.79100
C37         C  0.74547656  0.52285168  0.87956553     0.80800
N38         N  0.74522858  0.49863242  0.86648272    -0.77500
C39         C  0.74706356  0.47518949  0.88052575     0.83300
N40         N  0.74918035  0.47602976  0.90796545    -0.77400
C41         C  0.74956153  0.50019694  0.92143295     0.83400
N42         N  0.74770423  0.52378165  0.90715394    -0.79100
C43         C  0.74890028  0.52076397  0.99445005     0.80800
N44         N  0.74765436  0.52256670  0.96678242    -0.77500
C45         C  0.75206400  0.49996248  0.95128927     0.83300
N46         N  0.75772840  0.47598460  0.96355952    -0.77400
C47         C  0.75916465  0.47417221  0.99095279     0.83400
N48         N  0.75470460  0.49658910  0.00611876    -0.79100
O49         O  0.65495269  0.29409506  0.71410222    -0.77900
C50         C  0.71990310  0.30731145  0.76597756     0.83200
O51         O  0.72327811  0.23975739  0.66958922    -0.79000
O52         O  0.74759813  0.22533188  0.77019279    -0.80500
O53         O  0.64450742  0.22899569  0.77210426    -0.80300
O54         O  0.62992807  0.25671682  0.71306321    -0.78900
Zn55       Zn  0.69385613  0.28156324  0.71652784     1.55700
O56         O  0.68217402  0.23279993  0.79718670    -0.80300
Cd57       Cd  0.65758498  0.23107653  0.73223015     1.59700
Cd58       Cd  0.71914467  0.22203130  0.70792233     1.59600
O59         O  0.65723883  0.19207391  0.71693914    -0.80300
O60         O  0.69550354  0.24543964  0.73110764    -1.90800
Cd61       Cd  0.71065371  0.24562479  0.76850639     1.59900
O62         O  0.69996404  0.18454555  0.70317944    -0.80300
O63         O  0.71940938  0.28505997  0.77904311    -0.78900
C64         C  0.71750347  0.26367282  0.66156776     0.83600
C65         C  0.63198556  0.28243085  0.71073464     0.83300
O66         O  0.71286152  0.30868776  0.74107057    -0.77900
C67         C  0.65644168  0.22941637  0.79508488     0.84100
O68         O  0.70782691  0.28142522  0.67780510    -0.78000
C69         C  0.67551550  0.17643807  0.70729805     0.84200
C70         C  0.76411117  0.21740421  0.75177158     0.84500
O71         O  0.75720087  0.21643997  0.72670847    -0.80400
O72         O  0.26725684  0.79330453  0.59551152    -0.77900
C73         C  0.32964856  0.73635753  0.57939022     0.83200
O74         O  0.23013967  0.71669570  0.64150907    -0.79000
O75         O  0.32930722  0.69869652  0.65718877    -0.80500
O76         O  0.32648969  0.80128564  0.66670328    -0.80300
O77         O  0.26917637  0.81618276  0.63435471    -0.78900
Zn78       Zn  0.27548625  0.75404806  0.60446143     1.55700
O79         O  0.35294392  0.76495312  0.66145868    -0.80300
Cd80       Cd  0.28730701  0.78748113  0.65925957     1.59700
Cd81       Cd  0.26568403  0.72488182  0.66324767     1.59600
O82         O  0.26774861  0.78524700  0.69648083    -0.80300
O83         O  0.28855947  0.75097104  0.64168895    -1.90800
Cd84       Cd  0.32692675  0.73780846  0.64185753     1.59900
O85         O  0.25517975  0.74192379  0.70099651    -0.80300
O86         O  0.34108189  0.73513521  0.60255401    -0.78900
C87         C  0.22313924  0.72173425  0.61704674     0.83600
C88         C  0.26432788  0.81525806  0.60892346     0.83300
O89         O  0.30426617  0.74155122  0.57699648    -0.77900
C90         C  0.34969010  0.78986426  0.66770907     0.84100
O91         O  0.23916105  0.73423470  0.60076360    -0.78000
C92         C  0.25710331  0.76608578  0.71039264     0.84200
C93         C  0.31163956  0.68176374  0.66606134     0.84500
O94         O  0.28670310  0.68847013  0.66927632    -0.80400
C95         C  0.07464579  0.50559841  0.19624744     0.80800
N96         N  0.05003953  0.51771247  0.19756936    -0.77500
C97         C  0.02667341  0.50301878  0.19693185     0.83300
N98         N  0.02804242  0.47557138  0.19475783    -0.77400
C99         C  0.05263941  0.46292529  0.19324222     0.83400
N100        N  0.07609594  0.47805895  0.19401916    -0.79100
C101        C  0.07738708  0.39186277  0.18688523     0.80800
N102        N  0.07748907  0.41943087  0.18906428    -0.77500
C103        C  0.05334525  0.43296361  0.19093020     0.83300
N104        N  0.02940598  0.41868672  0.19047147    -0.77400
C105        C  0.02940448  0.39117370  0.18829758     0.83400
N106        N  0.05346149  0.37808853  0.18664742    -0.79100
O107        O  0.83179643  0.60086980  0.21505014    -0.77900
C108        C  0.76687321  0.58394040  0.26649752     0.83200
O109        O  0.76180528  0.65270273  0.17094233    -0.79000
O110        O  0.73666007  0.66239221  0.27061819    -0.80500
O111        O  0.83811550  0.66974457  0.27529344    -0.80300
O112        O  0.85649169  0.63874054  0.21910311    -0.78900
Zn113      Zn  0.79241184  0.61167902  0.21772057     1.55700
O114        O  0.80020043  0.66291945  0.29907611    -0.80300
Cd115      Cd  0.82706205  0.66404846  0.23522919     1.59700
Cd116      Cd  0.76611629  0.67105409  0.20934260     1.59600
O117        O  0.82732129  0.70229604  0.21844699    -0.80300
O118        O  0.78995010  0.64778461  0.23266647    -1.90800
Cd119      Cd  0.77478206  0.64556789  0.26994428     1.59900
O120        O  0.78443549  0.70939943  0.20513311    -0.80300
O121        O  0.76837328  0.60566675  0.28047456    -0.78900
C122        C  0.76751721  0.62859519  0.16320820     0.83600
C123        C  0.85465676  0.61328744  0.21480159     0.83300
O124        O  0.77347732  0.58351216  0.24142206    -0.77900
C125        C  0.82529521  0.66973840  0.29779531     0.84100
O126        O  0.77777693  0.61139899  0.17953424    -0.78000
C127        C  0.80883766  0.71779430  0.20915520     0.84200
C128        C  0.72053983  0.67208390  0.25288662     0.84500
O129        O  0.72798109  0.67574103  0.22822464    -0.80400
C130        C  0.93470665  0.20572586  0.85962959     0.80800
N131        N  0.96258576  0.20570698  0.85796635    -0.77500
C132        C  0.97771427  0.20348490  0.88123017     0.83300
N133        N  0.96480292  0.20088438  0.90553271    -0.77400
C134        C  0.93725859  0.20067020  0.90720469     0.83400
N135        N  0.92246113  0.20332684  0.88421889    -0.79100
C136        C  0.05074313  0.20066014  0.85978055     0.80800
N137        N  0.02297234  0.20151116  0.85816604    -0.77500
C138        C  0.00794835  0.20414227  0.88138577     0.83300
N139        N  0.02093614  0.20598837  0.90584710    -0.77400
C140        C  0.04855812  0.20531365  0.90750131     0.83400
N141        N  0.06314023  0.20242308  0.88435093    -0.79100
O142        O  0.77938841  0.27989716  0.09066702    -0.77900
C143        C  0.83038631  0.21692736  0.08115725     0.83200
O144        O  0.73148255  0.21436104  0.14583212    -0.79000
O145        O  0.83112125  0.19068358  0.16247319    -0.80500
O146        O  0.83355329  0.29257659  0.16311170    -0.80300
O147        O  0.77954125  0.30687132  0.12698182    -0.78900
Zn148      Zn  0.78045106  0.24205822  0.10544406     1.55700
O149        O  0.85890369  0.25542046  0.15904678    -0.80300
Cd150      Cd  0.79403727  0.28013413  0.15559384     1.59700
Cd151      Cd  0.76894618  0.22008693  0.16579151     1.59600
O152        O  0.77379669  0.28308878  0.19204782    -0.80300
O153        O  0.79356214  0.24222876  0.14215813    -1.90800
Cd154      Cd  0.83121885  0.22767353  0.14258365     1.59900
O155        O  0.76343887  0.24041634  0.20295717    -0.80300
O156        O  0.84386748  0.22015070  0.10307194    -0.78900
C157        C  0.72498161  0.21860797  0.12103439     0.83600
C158        C  0.77772438  0.30330607  0.10142645     0.83300
O159        O  0.80485508  0.22128557  0.08028662    -0.77900
C160        C  0.85647304  0.28067332  0.16427594     0.84100
O161        O  0.74216504  0.22813815  0.10410323    -0.78000
C162        C  0.76561542  0.26554225  0.20925919     0.84200
C163        C  0.81225668  0.17521072  0.17162788     0.84500
O164        O  0.78740282  0.18273205  0.17310262    -0.80400
C165        C  0.43756968  0.19832156  0.02288974     0.80800
N166        N  0.42358240  0.19740668  0.99918149    -0.77500
C167        C  0.43658373  0.20055674  0.97515316     0.83300
N168        N  0.46395553  0.20455113  0.97478725    -0.77400
C169        C  0.47837774  0.20566568  0.99836135     0.83400
N170        N  0.46509643  0.20255616  0.02260308    -0.79100
C171        C  0.55126149  0.21417165  0.01784694     0.80800
N172        N  0.52383576  0.21019106  0.01986009    -0.77500
C173        C  0.50820606  0.21009904  0.99697434     0.83300
N174        N  0.52029098  0.21374694  0.97226484    -0.77400
C175        C  0.54769299  0.21758857  0.97020987     0.83400
N176        N  0.56292825  0.21772102  0.99312890    -0.79100
C177        C  0.25289945  0.86381491  0.88278394     0.80800
N178        N  0.25327428  0.86370780  0.91053661    -0.77500
C179        C  0.25454275  0.88775189  0.92441167     0.83300
N180        N  0.25537020  0.91148972  0.91036464    -0.77400
C181        C  0.25503877  0.91167271  0.88281026     0.83400
N182        N  0.25381074  0.88775743  0.86923274    -0.79100
C183        C  0.25747154  0.86824124  0.99763915     0.80800
N184        N  0.25475464  0.89293419  0.00941809    -0.77500
C185        C  0.25179012  0.91563759  0.99438877     0.83300
N186        N  0.25191954  0.91358531  0.96687734    -0.77400
C187        C  0.25470320  0.88896129  0.95448571     0.83400
N188        N  0.25716019  0.86613010  0.96997019    -0.79100
O189        O  0.33237136  0.10103719  0.71961029    -0.77900
C190        C  0.27103537  0.08704169  0.77644821     0.83200
O191        O  0.26313889  0.15526284  0.67860788    -0.79000
O192        O  0.23720290  0.16704559  0.77637944    -0.80500
O193        O  0.33999223  0.16922041  0.78244226    -0.80300
O194        O  0.35833649  0.13755677  0.72649314    -0.78900
Zn195      Zn  0.29302592  0.11297780  0.72462157     1.55700
O196        O  0.30065746  0.16739099  0.80483897    -0.80300
Cd197      Cd  0.32964183  0.16409220  0.74216779     1.59700
Cd198      Cd  0.26940936  0.17418178  0.71604108     1.59600
O199        O  0.33235224  0.20225932  0.72483512    -0.80300
O200        O  0.29171601  0.14956788  0.73938393    -1.90800
Cd201      Cd  0.27532002  0.14921913  0.77639311     1.59900
O202        O  0.29003265  0.21124492  0.71086595    -0.80300
O203        O  0.27063996  0.10963024  0.78903052    -0.78900
C204        C  0.26597977  0.13059267  0.67111155     0.83600
C205        C  0.35573403  0.11252255  0.72042536     0.83300
O206        O  0.27651700  0.08541929  0.75111261    -0.77900
C207        C  0.32631799  0.17161540  0.80430609     0.84100
O208        O  0.27552648  0.11260819  0.68713163    -0.78000
C209        C  0.31481337  0.21842833  0.71486383     0.84200
C210        C  0.22255756  0.17802572  0.75809687     0.84500
O211        O  0.23133583  0.18162558  0.73390858    -0.80400
C212        C  0.24234715  0.03137222  0.38300682     0.80800
N213        N  0.24419075  0.00692710  0.37051095    -0.77500
C214        C  0.24645282  0.98373172  0.38497236     0.83300
N215        N  0.24627908  0.98519125  0.41250501    -0.77400
C216        C  0.24407784  0.00948119  0.42553752     0.83400
N217        N  0.24219156  0.03278144  0.41069545    -0.79100
C218        C  0.24362489  0.03208749  0.49791081     0.80800
N219        N  0.24140197  0.00779830  0.51063482    -0.77500
C220        C  0.23954841  0.98440711  0.49629083     0.83300
N221        N  0.24036300  0.98544661  0.46875355    -0.77400
C222        C  0.24267648  0.00961746  0.45555211     0.83400
N223        N  0.24433393  0.03311253  0.47022639    -0.79100
O224        O  0.21471996  0.10904229  0.09177504    -0.77900
C225        C  0.16076729  0.17284077  0.07664286     0.83200
O226        O  0.25665994  0.17971464  0.14575809    -0.79000
O227        O  0.15653991  0.20185744  0.15657741    -0.80500
O228        O  0.15552754  0.10013067  0.16303203    -0.80300
O229        O  0.21185006  0.08402534  0.12935181    -0.78900
Zn230      Zn  0.21077930  0.14808741  0.10371383     1.55700
O231        O  0.13008248  0.13662584  0.15553574    -0.80300
Cd232      Cd  0.19529555  0.11233473  0.15602821     1.59700
Cd233      Cd  0.21868027  0.17363069  0.16423530     1.59600
O234        O  0.21386865  0.11192686  0.19388356    -0.80300
O235        O  0.19587919  0.14960143  0.14022109    -1.90800
Cd236      Cd  0.15802052  0.16394270  0.13851565     1.59900
O237        O  0.22481037  0.15519297  0.20206433    -0.80300
O238        O  0.14697587  0.17135501  0.09856728    -0.78900
C239        C  0.26476584  0.17485166  0.12154880     0.83600
C240        C  0.21604471  0.08626245  0.10387102     0.83300
O241        O  0.18592428  0.16632952  0.07589223    -0.77900
C242        C  0.13249663  0.11192551  0.16298093     0.84100
O243        O  0.24897266  0.16409984  0.10386991    -0.78000
C244        C  0.22275340  0.13050270  0.20975046     0.84200
C245        C  0.17432108  0.21811913  0.16645286     0.84500
O246        O  0.19904905  0.21086330  0.16999385    -0.80400
C247        C  0.91012886  0.89054547  0.20919732     0.80800
N248        N  0.90951365  0.91815476  0.20668563    -0.77500
C249        C  0.93346958  0.93249306  0.20620149     0.83300
N250        N  0.95751413  0.91908411  0.20787947    -0.77400
C251        C  0.95813426  0.89175209  0.21015374     0.83400
N252        N  0.93440759  0.87767840  0.21091404    -0.79100
C253        C  0.91427902  0.00497701  0.19672747     0.80800
N254        N  0.93931555  0.01674543  0.19730163    -0.77500
C255        C  0.96202020  0.00193372  0.20136276     0.83300
N256        N  0.95947397  0.97472236  0.20451017    -0.77400
C257        C  0.93455826  0.96235192  0.20377291     0.83400
N258        N  0.91173658  0.97757749  0.19997807    -0.79100
O259        O  0.15764268  0.79813667  0.22223693    -0.77900
C260        C  0.22233126  0.81324218  0.27252156     0.83200
O261        O  0.22649346  0.74361968  0.17641509    -0.79000
O262        O  0.25142145  0.73253669  0.27546986    -0.80500
O263        O  0.14999463  0.72959025  0.27964713    -0.80300
O264        O  0.13297721  0.76042572  0.22391872    -0.78900
Zn265      Zn  0.19695211  0.78595946  0.22304506     1.55700
O266        O  0.18783215  0.73590559  0.30377422    -0.80300
Cd267      Cd  0.16137009  0.73421311  0.23971542     1.59700
Cd268      Cd  0.22129925  0.72488295  0.21424442     1.59600
O269        O  0.15895523  0.69611246  0.22237799    -0.80300
O270        O  0.19882798  0.74952304  0.23761662    -1.90800
Cd271      Cd  0.21429522  0.75149298  0.27481450     1.59900
O272        O  0.20122518  0.68746869  0.20833286    -0.80300
O273        O  0.22164805  0.79120683  0.28593559    -0.78900
C274        C  0.22150203  0.76770678  0.16824632     0.83600
C275        C  0.13457983  0.78612516  0.22173574     0.83300
O276        O  0.21587032  0.81393702  0.24739992    -0.77900
C277        C  0.16252403  0.73006257  0.30226252     0.84100
O278        O  0.21147270  0.78552843  0.18427646    -0.78000
C279        C  0.17646805  0.68007852  0.21210109     0.84200
C280        C  0.26665169  0.72116657  0.25786525     0.84500
O281        O  0.25886176  0.71756506  0.23329527    -0.80400
C282        C  0.41567006  0.39325000  0.69481732     0.80800
N283        N  0.44083361  0.38229474  0.69302457    -0.77500
C284        C  0.46323961  0.39814010  0.69060218     0.83300
N285        N  0.46050401  0.42552925  0.69015152    -0.77400
C286        C  0.43531203  0.43705277  0.69153010     0.83400
N287        N  0.41274279  0.42078156  0.69397277    -0.79100
C288        C  0.40832585  0.50787501  0.68985102     0.80800
N289        N  0.43198924  0.52216074  0.69082479    -0.77500
C290        C  0.45632163  0.50949132  0.69177727     0.83300
N291        N  0.45685040  0.48195635  0.69193163    -0.77400
C292        C  0.43334386  0.46709445  0.69127239     0.83400
N293        N  0.40885091  0.48015226  0.69002011    -0.79100
C294        C  0.72987868  0.36890255  0.37843071     0.80800
N295        N  0.72920742  0.39320281  0.36549101    -0.77500
C296        C  0.73047626  0.41677215  0.37962215     0.83300
N297        N  0.73226363  0.41593244  0.40709846    -0.77400
C298        C  0.73283311  0.39181273  0.42051728     0.83400
N299        N  0.73194553  0.36814696  0.40608321    -0.79100
C300        C  0.73810011  0.37074077  0.49329985     0.80800
N301        N  0.73546978  0.39527240  0.50545352    -0.77500
C302        C  0.73281215  0.41818277  0.49080689     0.83300
N303        N  0.73234456  0.41665647  0.46335376    -0.77400
C304        C  0.73429443  0.39224084  0.45052960     0.83400
N305        N  0.73721939  0.36910360  0.46556046    -0.79100
O306        O  0.64569537  0.66695013  0.60510047    -0.77900
C307        C  0.63364703  0.61224000  0.66807140     0.83200
O308        O  0.69781746  0.70903418  0.67858525    -0.79000
O309        O  0.71635432  0.61038405  0.69512628    -0.80500
O310        O  0.71706913  0.61088634  0.59422595    -0.80300
O311        O  0.68300938  0.66478760  0.57952142    -0.78900
Zn312      Zn  0.65856371  0.66325734  0.64386509     1.55700
O313        O  0.71005951  0.58438868  0.63022041    -0.80300
Cd314      Cd  0.71064675  0.64996409  0.60725916     1.59700
Cd315      Cd  0.71929702  0.67381863  0.66839211     1.59600
O316        O  0.74744280  0.67032597  0.60537414    -0.80300
O317        O  0.69569202  0.65001072  0.64483803    -1.90800
Cd318      Cd  0.69557805  0.61202236  0.65876124     1.59900
O319        O  0.75505354  0.68490082  0.64763676    -0.80300
O320        O  0.65618477  0.59962962  0.66712407    -0.78900
C321        C  0.67324194  0.71602189  0.67373747     0.83600
C322        C  0.65739003  0.66794761  0.58200762     0.83300
O323        O  0.63190489  0.63725756  0.66184913    -0.77900
C324        C  0.71597371  0.58755519  0.60518183     0.84100
O325        O  0.65685691  0.70026672  0.66110249    -0.78000
C326        C  0.76254085  0.68216324  0.62289509     0.84200
C327        C  0.72766104  0.62790797  0.71064751     0.84500
O328        O  0.72999276  0.65281113  0.70371494    -0.80400
C329        C  0.74832163  0.48926804  0.51705636    -0.04900
C330        C  0.72765308  0.49232725  0.53674110     0.09300
C331        C  0.70804660  0.47161188  0.54041233    -0.02200
C332        C  0.70923274  0.44777320  0.52467163    -0.00500
C333        C  0.73014934  0.44444090  0.50520948    -0.04100
C334        C  0.74961894  0.46533202  0.50133491     0.02900
C335        C  0.72613688  0.51749040  0.55360257     0.09700
C336        C  0.68681135  0.47478431  0.56068588     0.35600
C337        C  0.77177980  0.46167764  0.48220787     0.39100
C338        C  0.70822004  0.53836006  0.54608129    -0.04500
C339        C  0.70482205  0.56107296  0.56311242     0.02700
C340        C  0.71998245  0.56345742  0.58750082    -0.04100
C341        C  0.73837971  0.54276025  0.59469961    -0.00300
C342        C  0.74128858  0.51973422  0.57785995    -0.02900
C343        C  0.69301249  0.53621164  0.52088943     0.36400
C344        C  0.75480445  0.54539244  0.61902089     0.40000
C345        C  0.68467309  0.58133262  0.55608781     0.39100
C346        C  0.75964418  0.49813678  0.58554354     0.36100
C347        C  0.76846156  0.51061134  0.51334605     0.36700
C348        C  0.68873373  0.42672817  0.52836894     0.40000
N349        N  0.66851929  0.59740109  0.55056261    -0.38100
N350        N  0.68096303  0.53447560  0.50075771    -0.39700
N351        N  0.76810811  0.54742199  0.63831799    -0.37400
N352        N  0.77424615  0.48083409  0.59158156    -0.39800
N353        N  0.66992725  0.47739856  0.57689336    -0.39600
N354        N  0.67242076  0.40991524  0.53129359    -0.37200
N355        N  0.78961714  0.45877078  0.46711515    -0.38300
N356        N  0.78456098  0.52763091  0.51045493    -0.39900
C357        C  0.52874654  0.53383105  0.70763834    -0.04900
C358        C  0.53189755  0.55527157  0.68898924     0.09300
C359        C  0.50990468  0.56259747  0.67219715    -0.02200
C360        C  0.48515155  0.54790651  0.67326885    -0.00500
C361        C  0.48211246  0.52575467  0.69141129    -0.04100
C362        C  0.50390280  0.51925414  0.70903253     0.02900
C363        C  0.55900355  0.56890026  0.68537590     0.09700
C364        C  0.51304973  0.58500549  0.65334440     0.35600
C365        C  0.50058106  0.49813914  0.72923956     0.39100
C366        C  0.57686855  0.55952384  0.66501922    -0.04500
C367        C  0.60132859  0.57362086  0.65956482     0.02700
C368        C  0.60849915  0.59682786  0.67500431    -0.04100
C369        C  0.59124526  0.60541583  0.69630786    -0.00300
C370        C  0.56639813  0.59162631  0.70130077    -0.02900
C371        C  0.56990193  0.53534581  0.64958535     0.36400
C372        C  0.59948646  0.62784219  0.71362177     0.40000
C373        C  0.61853158  0.56486098  0.63723304     0.39100
C374        C  0.54837278  0.60078752  0.72273776     0.36100
C375        C  0.55130962  0.52658046  0.72511736     0.36700
C376        C  0.46328894  0.55513659  0.65485807     0.40000
N377        N  0.63221460  0.55798203  0.61936839    -0.38100
N378        N  0.56433280  0.51594984  0.63746277    -0.39700
N379        N  0.60621484  0.64553664  0.72763300    -0.37400
N380        N  0.53398825  0.60805611  0.73987651    -0.39800
N381        N  0.51561822  0.60287676  0.63833236    -0.39600
N382        N  0.44587941  0.56102924  0.64020894    -0.37200
N383        N  0.49791210  0.48141960  0.74550157    -0.38300
N384        N  0.56937252  0.52085205  0.73901702    -0.39900
C385        C  0.02959109  0.87137416  0.23198296    -0.04900
C386        C  0.03441518  0.84901134  0.21474246     0.09300
C387        C  0.01438275  0.84088210  0.19582631    -0.02200
C388        C  0.98945455  0.85480327  0.19434657    -0.00500
C389        C  0.98452663  0.87726293  0.21157966    -0.04100
C390        C  0.00479130  0.88557565  0.23032604     0.02900
C391        C  0.06029302  0.83333962  0.21698849     0.09700
C392        C  0.01951725  0.81808950  0.17787012     0.35600
C393        C  0.99976588  0.90804245  0.24871697     0.39100
C394        C  0.06023978  0.80804435  0.23018531    -0.04500
C395        C  0.08426064  0.79257972  0.23151965     0.02700
C396        C  0.10891810  0.80242503  0.21969791    -0.04100
C397        C  0.10891973  0.82849211  0.20731580    -0.00300
C398        C  0.08463548  0.84359683  0.20571647    -0.02900
C399        C  0.03533410  0.79813108  0.24281168     0.36400
C400        C  0.13372511  0.84032211  0.19632470     0.40000
C401        C  0.08344569  0.76710175  0.24628152     0.39100
C402        C  0.08460243  0.86984316  0.19239349     0.36100
C403        C  0.04999789  0.87939903  0.25179298     0.36700
C404        C  0.96912997  0.84623468  0.17465661     0.40000
N405        N  0.08263503  0.74682467  0.25808199    -0.38100
N406        N  0.01545367  0.79031529  0.25286004    -0.39700
N407        N  0.15338899  0.85029912  0.18786449    -0.37400
N408        N  0.08455302  0.89080761  0.18186122    -0.39800
N409        N  0.02367945  0.79986209  0.16363973    -0.39600
N410        N  0.95288933  0.83932623  0.15902452    -0.37200
N411        N  0.99574459  0.92595289  0.26339214    -0.38300
N412        N  0.06631208  0.88578105  0.26756519    -0.39900
C413        C  0.08639498  0.06175419  0.20098054    -0.04900
C414        C  0.06206858  0.06350613  0.18594266     0.09300
C415        C  0.06049653  0.08165579  0.16389594    -0.02200
C416        C  0.08314837  0.09800954  0.15682695    -0.00500
C417        C  0.10786685  0.09603057  0.17154512    -0.04100
C418        C  0.10927773  0.07773926  0.19375486     0.02900
C419        C  0.03794012  0.04609959  0.19303193     0.09700
C420        C  0.03559717  0.08299486  0.14808564     0.35600
C421        C  0.13411852  0.07548654  0.20955881     0.39100
C422        C  0.01677648  0.05667515  0.20915876    -0.04500
C423        C  0.99260321  0.04155211  0.21320767     0.02700
C424        C  0.98926992  0.01568641  0.20090287    -0.04100
C425        C  0.01143168  0.00433605  0.18638276    -0.00300
C426        C  0.03560760  0.01957618  0.18244236    -0.02900
C427        C  0.01979793  0.08338985  0.22125359     0.36400
C428        C  0.00915893  0.97751442  0.17437083     0.40000
C429        C  0.97128591  0.05264082  0.23033764     0.39100
C430        C  0.05790522  0.00831386  0.16678369     0.36100
C431        C  0.08779450  0.04339389  0.22391945     0.36700
C432        C  0.08119061  0.11598797  0.13362245     0.40000
N433        N  0.95427747  0.06147642  0.24398056    -0.38100
N434        N  0.02225122  0.10468936  0.23091458    -0.39700
N435        N  0.00747503  0.95606599  0.16487483    -0.37400
N436        N  0.07575558  0.99936827  0.15435135    -0.39800
N437        N  0.01572734  0.08389837  0.13548589    -0.39600
N438        N  0.07956316  0.13034144  0.11512947    -0.37200
N439        N  0.15394816  0.07352682  0.22209934    -0.38300
N440        N  0.08883171  0.02874390  0.24221975    -0.39900
C441        C  0.26043356  0.93094122  0.32985588    -0.04900
C442        C  0.24391138  0.90912277  0.33847082     0.09300
C443        C  0.23051153  0.91057428  0.36378585    -0.02200
C444        C  0.23225734  0.93439914  0.37972713    -0.00500
C445        C  0.24753860  0.95707995  0.37038471    -0.04100
C446        C  0.26244326  0.95472646  0.34576621     0.02900
C447        C  0.23955791  0.88506127  0.32027551     0.09700
C448        C  0.21439037  0.88762881  0.37310708     0.35600
C449        C  0.28027040  0.97658632  0.33684232     0.39100
C450        C  0.25694594  0.86247624  0.32179681    -0.04500
C451        C  0.25207395  0.83943494  0.30533434     0.02700
C452        C  0.22962591  0.83877214  0.28724135    -0.04100
C453        C  0.21258244  0.86176684  0.28537738    -0.00300
C454        C  0.21761795  0.88479865  0.30177542    -0.02900
C455        C  0.27962935  0.86288578  0.34065672     0.36400
C456        C  0.18885132  0.86126006  0.26781598     0.40000
C457        C  0.27035072  0.81647781  0.30692043     0.39100
C458        C  0.19980819  0.90811680  0.30015025     0.36100
C459        C  0.27506805  0.92897835  0.30431554     0.36700
C460        C  0.21730575  0.93570885  0.40513658     0.40000
N461        N  0.28492684  0.79816399  0.30818876    -0.38100
N462        N  0.29768742  0.86328712  0.35575777    -0.39700
N463        N  0.16983201  0.86089614  0.25393353    -0.37400
N464        N  0.18564327  0.92674862  0.29895034    -0.39800
N465        N  0.20158187  0.86928389  0.38052456    -0.39600
N466        N  0.20545209  0.93663912  0.42545616    -0.37200
N467        N  0.29449339  0.99400524  0.32972074    -0.38300
N468        N  0.28673960  0.92734226  0.28394518    -0.39900
C469        C  0.22314178  0.12788357  0.28746228    -0.04900
C470        C  0.23651440  0.10306894  0.29206241     0.09300
C471        C  0.24809130  0.08903070  0.26989146    -0.02200
C472        C  0.24495605  0.09886114  0.24316747    -0.00500
C473        C  0.23000725  0.12281692  0.23823156    -0.04100
C474        C  0.21993211  0.13779960  0.26068698     0.02900
C475        C  0.23611575  0.08997912  0.31960963     0.09700
C476        C  0.26238779  0.06378975  0.27454961     0.35600
C477        C  0.20490362  0.16263586  0.25630009     0.39100
C478        C  0.21292266  0.07493645  0.32774946    -0.04500
C479        C  0.21412838  0.05795407  0.35072767     0.02700
C480        C  0.23861752  0.05554516  0.36552934    -0.04100
C481        C  0.26109032  0.07226563  0.35879308    -0.00300
C482        C  0.25974887  0.08965262  0.33599212    -0.02900
C483        C  0.18835551  0.07556239  0.31140003     0.36400
C484        C  0.28616203  0.07016541  0.37416652     0.40000
C485        C  0.19056969  0.04171227  0.35835364     0.39100
C486        C  0.28307154  0.10624060  0.32854852     0.36100
C487        C  0.21186713  0.14267838  0.31029971     0.36700
C488        C  0.25719148  0.08420565  0.22070706     0.40000
N489        N  0.17184030  0.02871863  0.36452402    -0.38100
N490        N  0.16880840  0.07605849  0.29828212    -0.39700
N491        N  0.30618627  0.06843709  0.38642362    -0.37400
N492        N  0.30165186  0.11954260  0.32258822    -0.39800
N493        N  0.27377922  0.04368351  0.27839381    -0.39600
N494        N  0.26696575  0.07252516  0.20279793    -0.37200
N495        N  0.19293550  0.18248157  0.25285046    -0.38300
N496        N  0.20283801  0.15440710  0.32856365    -0.39900
C497        C  0.35672110  0.34508258  0.68069209    -0.04900
C498        C  0.35897868  0.32741129  0.70312603     0.09300
C499        C  0.37643915  0.33444235  0.72482042    -0.02200
C500        C  0.39300463  0.35786294  0.72318418    -0.00500
C501        C  0.39250202  0.37433030  0.69970397    -0.04100
C502        C  0.37359991  0.36842741  0.67888263     0.02900
C503        C  0.34525012  0.30008546  0.70298859     0.09700
C504        C  0.37841365  0.31672592  0.74822673     0.35600
C505        C  0.37292061  0.38524712  0.65479093     0.39100
C506        C  0.35818788  0.27794500  0.69023365    -0.04500
C507        C  0.34749457  0.25143104  0.69303353     0.02700
C508        C  0.32374360  0.24674645  0.70868379    -0.04100
C509        C  0.31017153  0.26911651  0.72053547    -0.00300
C510        C  0.32089316  0.29567515  0.71762927    -0.02900
C511        C  0.38311037  0.28239289  0.67494071     0.36400
C512        C  0.28616478  0.26468736  0.73720777     0.40000
C513        C  0.36105577  0.22890546  0.67983299     0.39100
C514        C  0.30742318  0.31845276  0.73044162     0.36100
C515        C  0.33779157  0.33857474  0.65903310     0.36700
C516        C  0.41161839  0.36439014  0.74519690     0.40000
N517        N  0.37186874  0.21094624  0.66928139    -0.38100
N518        N  0.40299078  0.28600149  0.66276461    -0.39700
N519        N  0.26707696  0.26113829  0.75060392    -0.37400
N520        N  0.29675680  0.33669615  0.74065045    -0.39800
N521        N  0.37997904  0.30253478  0.76684732    -0.39600
N522        N  0.42653897  0.36962836  0.76266079    -0.37200
N523        N  0.37246938  0.39866542  0.63553970    -0.38300
N524        N  0.32259062  0.33335626  0.64180974    -0.39900
C525        C  0.22751546  0.09093121  0.54452808    -0.04900
C526        C  0.25123198  0.09122031  0.56076347     0.09300
C527        C  0.27426932  0.07644150  0.55230075    -0.02200
C528        C  0.27256567  0.05908104  0.52957889    -0.00500
C529        C  0.24786836  0.05647216  0.51510104    -0.04100
C530        C  0.22580231  0.07348722  0.52171023     0.02900
C531        C  0.25104591  0.10367658  0.58859604     0.09700
C532        C  0.29926295  0.07794900  0.56795772     0.35600
C533        C  0.20086111  0.07182338  0.50603774     0.39100
C534        C  0.24148663  0.08818067  0.61076726    -0.04500
C535        C  0.24515974  0.09757128  0.63763205     0.02700
C536        C  0.25879319  0.12249313  0.64267120    -0.04100
C537        C  0.26703994  0.13868501  0.62026520    -0.00300
C538        C  0.26300399  0.12931871  0.59336437    -0.02900
C539        C  0.22864325  0.06201034  0.60586870     0.36400
C540        C  0.28119408  0.16424272  0.62471287     0.40000
C541        C  0.23478172  0.08148470  0.66007579     0.39100
C542        C  0.27185326  0.14565627  0.57050006     0.36100
C543        C  0.20459469  0.10775039  0.55202648     0.36700
C544        C  0.29579513  0.04267735  0.52192047     0.40000
N545        N  0.22649058  0.06864315  0.67796030    -0.38100
N546        N  0.21844351  0.04115355  0.60181972    -0.39700
N547        N  0.29254573  0.18461095  0.62821707    -0.37400
N548        N  0.27882641  0.15868438  0.55220899    -0.39800
N549        N  0.31918646  0.07925961  0.58046425    -0.39600
N550        N  0.31425286  0.02953092  0.51574884    -0.37200
N551        N  0.18098098  0.07053880  0.49345703    -0.38300
N552        N  0.18637195  0.12131598  0.55797493    -0.39900
C553        C  0.23371100  0.80603114  0.03651450    -0.04900
C554        C  0.24913965  0.80903504  0.06058999     0.09300
C555        C  0.27113810  0.82764129  0.06106753    -0.02200
C556        C  0.27596346  0.84485243  0.03869206    -0.00500
C557        C  0.25833256  0.84423333  0.01594986    -0.04100
C558        C  0.23798642  0.82385263  0.01439292     0.02900
C559        C  0.24023994  0.79543230  0.08649144     0.09700
C560        C  0.28779022  0.83028137  0.08528651     0.35600
C561        C  0.21988858  0.82270683  0.99115479     0.39100
C562        C  0.25575466  0.77448331  0.09817828    -0.04500
C563        C  0.24951412  0.76479595  0.12455509     0.02700
C564        C  0.22705428  0.77548049  0.13921724    -0.04100
C565        C  0.20980363  0.79422916  0.12593729    -0.00300
C566        C  0.21689016  0.80483799  0.10026975    -0.02900
C567        C  0.27824099  0.76300675  0.08297905     0.36400
C568        C  0.18373005  0.80139107  0.13773784     0.40000
C569        C  0.26655544  0.74409147  0.13647228     0.39100
C570        C  0.20030118  0.82589828  0.08820149     0.36100
C571        C  0.21250445  0.78546077  0.03513288     0.36700
C572        C  0.29848308  0.86409348  0.03955396     0.40000
N573        N  0.28009098  0.72737623  0.14576458    -0.38100
N574        N  0.29608565  0.75378612  0.07074516    -0.39700
N575        N  0.16260674  0.80665776  0.14668349    -0.37400
N576        N  0.18708595  0.84264737  0.07851507    -0.39800
N577        N  0.30106055  0.83232828  0.10461427    -0.39600
N578        N  0.31644409  0.87942211  0.04025300    -0.37200
N579        N  0.20539269  0.82192248  0.97263492    -0.38300
N580        N  0.19559261  0.76901618  0.03406788    -0.39900
C581        C  0.25707776  0.98988847  0.01694824    -0.04900
C582        C  0.23806999  0.99041111  0.03851026     0.09300
C583        C  0.22289088  0.96682801  0.04468788    -0.02200
C584        C  0.22681547  0.94280400  0.02966839    -0.00500
C585        C  0.24636284  0.94190817  0.00846286    -0.04100
C586        C  0.26120628  0.96573959  0.00191732     0.02900
C587        C  0.23334769  0.01586465  0.05456482     0.09700
C588        C  0.20318128  0.96730615  0.06669164     0.35600
C589        C  0.28126755  0.96530441  0.98027365     0.39100
C590        C  0.20976475  0.03138210  0.04980852    -0.04500
C591        C  0.20375490  0.05380816  0.06655413     0.02700
C592        C  0.22191404  0.06169176  0.08742907    -0.04100
C593        C  0.24568302  0.04638258  0.09203314    -0.00300
C594        C  0.25122624  0.02335039  0.07582859    -0.02900
C595        C  0.19151668  0.02401913  0.02778704     0.36400
C596        C  0.26456725  0.05451936  0.11322915     0.40000
C597        C  0.17802531  0.06777560  0.06338019     0.39100
C598        C  0.27508887  0.00706138  0.08125985     0.36100
C599        C  0.27243699  0.01423590  0.01036407     0.36700
C600        C  0.21002771  0.91918546  0.03566455     0.40000
N601        N  0.15729165  0.07860109  0.06119375    -0.38100
N602        N  0.17703069  0.01811590  0.01017189    -0.39700
N603        N  0.27963501  0.06107703  0.13012262    -0.37400
N604        N  0.29409852  0.99400090  0.08558544    -0.39800
N605        N  0.18742846  0.96775876  0.08419499    -0.39600
N606        N  0.19666674  0.90033934  0.04040390    -0.37200
N607        N  0.29724553  0.96501224  0.96296440    -0.38300
N608        N  0.28471083  0.03368757  0.00520704    -0.39900
C609        C  0.28261905  0.03108710  0.82802532    -0.04900
C610        C  0.26015583  0.01371461  0.82314351     0.09300
C611        C  0.24064342  0.02088364  0.80335772    -0.02200
C612        C  0.24396096  0.04495767  0.78809274    -0.00500
C613        C  0.26685697  0.06188178  0.79246880    -0.04100
C614        C  0.28602186  0.05499660  0.81270404     0.02900
C615        C  0.25797191  0.98725985  0.83804474     0.09700
C616        C  0.21726321  0.00337225  0.79864298     0.35600
C617        C  0.30976296  0.07215172  0.81725293     0.39100
C618        C  0.23990633  0.98423111  0.86017460    -0.04500
C619        C  0.23880836  0.95956714  0.87475386     0.02700
C620        C  0.25609093  0.93779178  0.86752274    -0.04100
C621        C  0.27429126  0.94102811  0.84539169    -0.00300
C622        C  0.27500323  0.96551677  0.83061996    -0.02900
C623        C  0.22261717  0.00665363  0.86807674     0.36400
C624        C  0.29324005  0.91966939  0.83836055     0.40000
C625        C  0.21935306  0.95646892  0.89676386     0.39100
C626        C  0.29355206  0.96853275  0.80781752     0.36100
C627        C  0.30238137  0.02417210  0.84875351     0.36700
C628        C  0.22351137  0.05270930  0.76840129     0.40000
N629        N  0.20383384  0.95397970  0.91432016    -0.38100
N630        N  0.20880534  0.02454611  0.87435118    -0.39700
N631        N  0.30854035  0.90285102  0.83259168    -0.37400
N632        N  0.30836950  0.97105398  0.78967889    -0.39800
N633        N  0.19855246  0.98941636  0.79500707    -0.39600
N634        N  0.20713055  0.05903366  0.75279455    -0.37200
N635        N  0.32874650  0.08576930  0.82078744    -0.38300
N636        N  0.31813060  0.01856803  0.86526205    -0.39900
C637        C  0.38986766  0.21503184  0.08058481    -0.04900
C638        C  0.37661906  0.18970503  0.08385074     0.09300
C639        C  0.38827581  0.16632521  0.07208819    -0.02200
C640        C  0.41091872  0.16881289  0.05450710    -0.00500
C641        C  0.42183118  0.19466591  0.04838605    -0.04100
C642        C  0.41215752  0.21759753  0.06252465     0.02900
C643        C  0.34819895  0.18834926  0.09529316     0.09700
C644        C  0.37589008  0.13993487  0.07668654     0.35600
C645        C  0.42364131  0.24413143  0.05672409     0.39100
C646        C  0.32614952  0.19695108  0.07907772    -0.04500
C647        C  0.29905114  0.19351803  0.08813843     0.02700
C648        C  0.29354216  0.18121182  0.11352564    -0.04100
C649        C  0.31571738  0.17341348  0.13019151    -0.00300
C650        C  0.34290765  0.17712901  0.12113384    -0.02900
C651        C  0.33138321  0.20883458  0.05260491     0.36400
C652        C  0.31067367  0.16015279  0.15600785     0.40000
C653        C  0.27680937  0.20283489  0.07121623     0.39100
C654        C  0.36549913  0.16900904  0.13816982     0.36100
C655        C  0.37949896  0.23866101  0.09466660     0.36700
C656        C  0.42201946  0.14494991  0.04135692     0.40000
N657        N  0.25907626  0.21021796  0.05769356    -0.38100
N658        N  0.33569048  0.21837760  0.03156276    -0.39700
N659        N  0.30666434  0.14948510  0.17656431    -0.37400
N660        N  0.38355008  0.16252716  0.15174535    -0.39800
N661        N  0.36604616  0.11887858  0.08048586    -0.39600
N662        N  0.43095556  0.12592718  0.03090477    -0.37200
N663        N  0.43276956  0.26529830  0.05194282    -0.38300
N664        N  0.37124555  0.25746611  0.10603776    -0.39900
C665        C  0.34816921  0.17342049  0.87880165    -0.04900
C666        C  0.37123168  0.19056314  0.87758147     0.09300
C667        C  0.37868455  0.20274585  0.85280823     0.02600
C668        C  0.36358729  0.19724404  0.82904651    -0.00500
C669        C  0.34098184  0.17911072  0.82983863    -0.04100
C670        C  0.33333280  0.16730338  0.85501169     0.02900
C671        C  0.38883195  0.19415724  0.90207843     0.09700
C672        C  0.40219369  0.22073131  0.85179098     0.35600
C673        C  0.31131378  0.14753068  0.85640680     0.39100
C674        C  0.41008114  0.17567610  0.90698862    -0.04500
C675        C  0.42604014  0.17806744  0.93065964     0.02700
C676        C  0.42084508  0.19900565  0.94953712    -0.04100
C677        C  0.39966761  0.21763660  0.94450303    -0.00300
C678        C  0.38385342  0.21534090  0.92067867    -0.02900
C679        C  0.41515184  0.15389358  0.88780610     0.36400
C680        C  0.39418415  0.23919524  0.96382184     0.40000
C681        C  0.44673040  0.15800794  0.93634180     0.39100
C682        C  0.36240617  0.23467267  0.91524885     0.36100
C683        C  0.34003807  0.16171066  0.90461695     0.36700
C684        C  0.37149949  0.21039653  0.80385374     0.40000
N685        N  0.46300563  0.14179670  0.94098256    -0.38100
N686        N  0.41909508  0.13654900  0.87244737    -0.39700
N687        N  0.38978306  0.25631177  0.97931468    -0.37400
N688        N  0.34534866  0.25013526  0.91080857    -0.39800
N689        N  0.42094156  0.23508180  0.85101425    -0.39600
N690        N  0.37791448  0.22075366  0.78373666    -0.37200
N691        N  0.29388120  0.13163570  0.85761271    -0.38300
N692        N  0.33352728  0.15253981  0.92526734    -0.39900
C693        C  0.66561898  0.20325573  0.07333332    -0.04900
C694        C  0.64302706  0.21109566  0.08921181     0.09300
C695        C  0.64709625  0.21927287  0.11639580    -0.02200
C696        C  0.67375075  0.22104652  0.12721669    -0.00500
C697        C  0.69654219  0.21348458  0.11123318    -0.04100
C698        C  0.69209053  0.20372556  0.08445015     0.02900
C699        C  0.61533507  0.21223338  0.07636078     0.09700
C700        C  0.62382546  0.22662361  0.13295670     0.35600
C701        C  0.71472519  0.19418238  0.06806144     0.39100
C702        C  0.60127129  0.18802297  0.06965307    -0.04500
C703        C  0.57844337  0.18877178  0.05223338     0.02700
C704        C  0.56929723  0.21377456  0.04190947    -0.04100
C705        C  0.58166845  0.23813771  0.05078693    -0.00300
C706        C  0.60476864  0.23739436  0.06779686    -0.02900
C707        C  0.61122465  0.16225540  0.07955997     0.36400
C708        C  0.57117522  0.26394799  0.04152611     0.40000
C709        C  0.56552100  0.16371890  0.04341172     0.39100
C710        C  0.61862580  0.26243130  0.07515976     0.36100
C711        C  0.66171576  0.19579828  0.04503378     0.36700
C712        C  0.67768161  0.23253713  0.15408624     0.40000
N713        N  0.55521142  0.14376473  0.03626018    -0.38100
N714        N  0.61923685  0.14170939  0.08745681    -0.39700
N715        N  0.56269687  0.28453615  0.03424638    -0.37400
N716        N  0.62968886  0.28238634  0.08109619    -0.39800
N717        N  0.60523532  0.23250207  0.14614515    -0.39600
N718        N  0.68082835  0.24195092  0.17542114    -0.37200
N719        N  0.73270096  0.18657004  0.05491583    -0.38300
N720        N  0.65851382  0.19003871  0.02245090    -0.39900
C721        C  0.85364724  0.05014123  0.21082168    -0.04900
C722        C  0.85561750  0.06814523  0.18862287     0.09300
C723        C  0.87373123  0.06237143  0.16712899    -0.02200
C724        C  0.89089882  0.03965917  0.16856422    -0.00500
C725        C  0.89062529  0.02288813  0.19182072    -0.04100
C726        C  0.87125374  0.02759566  0.21251423     0.02900
C727        C  0.84083792  0.09463674  0.18868510     0.09700
C728        C  0.87594094  0.08085373  0.14430119     0.35600
C729        C  0.87083333  0.01050254  0.23643006     0.39100
C730        C  0.85243540  0.11719194  0.20220789    -0.04500
C731        C  0.84195771  0.14340103  0.19793126     0.02700
C732        C  0.81983624  0.14728509  0.18001967    -0.04100
C733        C  0.80697173  0.12441349  0.16806279    -0.00300
C734        C  0.81745931  0.09815720  0.17245672    -0.02900
C735        C  0.87593544  0.11352636  0.21965079     0.36400
C736        C  0.78412108  0.12797082  0.14977765     0.40000
C737        C  0.85414093  0.16646437  0.21180555     0.39100
C738        C  0.80495216  0.07478947  0.15943244     0.36100
C739        C  0.83442993  0.05565026  0.23247971     0.36700
C740        C  0.90977134  0.03415593  0.14652330     0.40000
N741        N  0.86380912  0.18485836  0.22291924    -0.38100
N742        N  0.89464786  0.11054265  0.23359146    -0.39700
N743        N  0.76592027  0.13077910  0.13513906    -0.37400
N744        N  0.79503908  0.05606954  0.14909689    -0.39800
N745        N  0.87776064  0.09572858  0.12622505    -0.39600
N746        N  0.92485503  0.02975823  0.12899473    -0.37200
N747        N  0.87057429  0.99688051  0.25554525    -0.38300
N748        N  0.81908051  0.06012002  0.24975524    -0.39900
C749        C  0.73377018  0.27255929  0.28035377    -0.04900
C750        C  0.74766299  0.29568549  0.29039466     0.09300
C751        C  0.76825871  0.30785360  0.27442287    -0.02200
C752        C  0.77496339  0.29706092  0.24876942    -0.00500
C753        C  0.75970612  0.27507177  0.23763534    -0.04100
C754        C  0.73916934  0.26274028  0.25383565     0.02900
C755        C  0.73976075  0.30863467  0.31692723     0.09700
C756        C  0.78228757  0.33203966  0.28415550     0.35600
C757        C  0.72275955  0.24064534  0.24305613     0.39100
C758        C  0.75835594  0.30953966  0.33887484    -0.04500
C759        C  0.75402411  0.32755809  0.36083483     0.02700
C760        C  0.73054706  0.34395501  0.36141094    -0.04100
C761        C  0.71016751  0.33993078  0.34155558    -0.00300
C762        C  0.71506249  0.32304737  0.31894809    -0.02900
C763        C  0.78275382  0.29313232  0.33797352     0.36400
C764        C  0.68406240  0.35319826  0.34443332     0.40000
C765        C  0.77460594  0.33058211  0.38174885     0.39100
C766        C  0.69543173  0.32197560  0.29694345     0.36100
C767        C  0.71375728  0.25899021  0.29734231     0.36700
C768        C  0.79829345  0.30835195  0.23438574     0.40000
N769        N  0.79101689  0.33302521  0.39846078    -0.38100
N770        N  0.80226137  0.28009419  0.33716595    -0.39700
N771        N  0.66288011  0.36307559  0.34685940    -0.37400
N772        N  0.67979650  0.32111642  0.27937176    -0.39800
N773        N  0.79346671  0.35129429  0.29192091    -0.39600
N774        N  0.81695787  0.31734586  0.22306884    -0.37200
N775        N  0.70952795  0.22307656  0.23451222    -0.38300
N776        N  0.69782477  0.24818270  0.31096133    -0.39900
C777        C  0.13124393  0.17238503  0.00486915    -0.04900
C778        C  0.11380152  0.19503550  0.00574223     0.09300
C779        C  0.11389976  0.21193456  0.02892078    -0.02200
C780        C  0.13023874  0.20540320  0.05162940    -0.00500
C781        C  0.14660733  0.18183401  0.05136896    -0.04100
C782        C  0.14777178  0.16595051  0.02742360     0.02900
C783        C  0.09522161  0.20067989  0.98215736     0.09700
C784        C  0.09702717  0.23595462  0.02941192     0.35600
C785        C  0.16552892  0.14260446  0.02603951     0.39100
C786        C  0.06990746  0.18706611  0.98001423    -0.04500
C787        C  0.05386175  0.18961386  0.95629546     0.02700
C788        C  0.06309916  0.20579718  0.93430921    -0.04100
C789        C  0.08776664  0.22073065  0.93731251    -0.00300
C790        C  0.10369224  0.21812440  0.96108188    -0.02900
C791        C  0.06078245  0.16974195  0.00204388     0.36400
C792        C  0.09685383  0.23897448  0.91599991     0.40000
C793        C  0.02856960  0.17435436  0.95415619     0.39100
C794        C  0.12918920  0.23296135  0.96369144     0.36100
C795        C  0.13181747  0.15542769  0.98075598     0.36700
C796        C  0.13093050  0.22346989  0.07494233     0.40000
N797        N  0.00836408  0.16220825  0.95250630    -0.38100
N798        N  0.05357178  0.15591859  0.01964704    -0.39700
N799        N  0.10415312  0.25350319  0.89900475    -0.37400
N800        N  0.14950869  0.24482207  0.96587377    -0.39800
N801        N  0.08362391  0.25517755  0.02975463    -0.39600
N802        N  0.13171877  0.23796690  0.09346092    -0.37200
N803        N  0.17992100  0.12415681  0.02465893    -0.38300
N804        N  0.13216152  0.14193887  0.96149076    -0.39900
C805        C  0.14483189  0.18000683  0.76124988    -0.04900
C806        C  0.14075852  0.19393887  0.78598015     0.09300
C807        C  0.16330641  0.20575291  0.79942419    -0.02200
C808        C  0.18995180  0.20182549  0.78941566    -0.00500
C809        C  0.19431864  0.18628819  0.76562783    -0.04100
C810        C  0.17150902  0.17645279  0.75089450     0.02900
C811        C  0.11361974  0.19315994  0.80007846     0.09700
C812        C  0.15909489  0.22098713  0.82431915     0.35600
C813        C  0.17548867  0.16131641  0.72593003     0.39100
C814        C  0.10760758  0.17133920  0.81764383    -0.04500
C815        C  0.08502824  0.17266663  0.83528769     0.02700
C816        C  0.06835099  0.19591997  0.83569896    -0.04100
C817        C  0.07286950  0.21665981  0.81644415    -0.00300
C818        C  0.09553511  0.21529472  0.79865930    -0.02900
C819        C  0.12573931  0.14823860  0.81876441     0.36400
C820        C  0.05528667  0.24015846  0.81617424     0.40000
C821        C  0.07960712  0.15054794  0.85399074     0.39100
C822        C  0.10109453  0.23722905  0.77987420     0.36100
C823        C  0.12161621  0.16827915  0.74719642     0.36700
C824        C  0.21296787  0.21358599  0.80382868     0.40000
N825        N  0.07524962  0.13296743  0.86895320    -0.38100
N826        N  0.14031256  0.12990579  0.81966112    -0.39700
N827        N  0.04117888  0.25887418  0.81597068    -0.37400
N828        N  0.10554862  0.25474143  0.76486113    -0.39800
N829        N  0.15560405  0.23313936  0.84414662    -0.39600
N830        N  0.23134195  0.22293567  0.81532046    -0.37200
N831        N  0.17864080  0.14931561  0.70595015    -0.38300
N832        N  0.10304554  0.15886564  0.73607775    -0.39900
C833        C  0.88540265  0.18081099  0.96154913    -0.04900
C834        C  0.89386711  0.19718115  0.98351418     0.09300
C835        C  0.91764832  0.21323600  0.98115424    -0.02200
C836        C  0.93236288  0.21378819  0.95653808    -0.00500
C837        C  0.92324703  0.19831821  0.93396975    -0.04100
C838        C  0.89989643  0.18144433  0.93681159     0.02900
C839        C  0.87619662  0.19984663  0.00811423     0.09700
C840        C  0.92631244  0.23009250  0.00380674     0.35600
C841        C  0.89059545  0.16468461  0.91433214     0.39100
C842        C  0.88310905  0.18688322  0.03261939    -0.04500
C843        C  0.86762354  0.19158920  0.05634273     0.02700
C844        C  0.84502492  0.20937141  0.05566198    -0.04100
C845        C  0.83749166  0.22133329  0.03056925    -0.00300
C846        C  0.85305700  0.21657023  0.00701344    -0.02900
C847        C  0.90630396  0.16881941  0.03336045     0.36400
C848        C  0.81446512  0.23960126  0.02887224     0.40000
C849        C  0.87482867  0.17775330  0.08128767     0.39100
C850        C  0.84567816  0.22949109  0.98159710     0.36100
C851        C  0.86130355  0.16380570  0.96430125     0.36700
C852        C  0.95591295  0.23160442  0.95413442     0.40000
N853        N  0.88059809  0.16672371  0.10117983    -0.38100
N854        N  0.92480957  0.15440398  0.03391397    -0.39700
N855        N  0.79607733  0.25409837  0.02732764    -0.37400
N856        N  0.83981064  0.23965670  0.96127989    -0.39800
N857        N  0.93316991  0.24350797  0.02190555    -0.39600
N858        N  0.97467969  0.24583552  0.95226182    -0.37200
N859        N  0.88303725  0.15144929  0.89637073    -0.38300
N860        N  0.84203669  0.15031949  0.96654281    -0.39900
C861        C  0.76521848  0.51124868  0.29291406    -0.04900
C862        C  0.74489840  0.51304945  0.31314192     0.09300
C863        C  0.72978218  0.53711737  0.31588349    -0.02200
C864        C  0.73598643  0.55980670  0.29954556    -0.00500
C865        C  0.75755201  0.55866662  0.28038984    -0.04100
C866        C  0.77131315  0.53382107  0.27633478     0.02900
C867        C  0.73976942  0.48958796  0.33178322     0.09700
C868        C  0.70807695  0.53863503  0.33584937     0.35600
C869        C  0.79209697  0.53137806  0.25552096     0.39100
C870        C  0.75805815  0.48423917  0.35318242    -0.04500
C871        C  0.75472036  0.46078517  0.36927156     0.02700
C872        C  0.73239239  0.44301420  0.36475415    -0.04100
C873        C  0.71309025  0.44951426  0.34449898    -0.00300
C874        C  0.71711690  0.47233263  0.32767306    -0.02900
C875        C  0.78056916  0.50277960  0.35834276     0.36400
C876        C  0.68845546  0.43345089  0.34152139     0.40000
C877        C  0.77514840  0.45429664  0.38945290     0.39100
C878        C  0.69819356  0.47785721  0.30577463     0.36100
C879        C  0.78021847  0.48619195  0.28955061     0.36700
C880        C  0.71963365  0.58413414  0.30203030     0.40000
N881        N  0.79160271  0.44906554  0.40538371    -0.38100
N882        N  0.79844833  0.51766472  0.36242963    -0.39700
N883        N  0.66832276  0.42137413  0.33901994    -0.37400
N884        N  0.68314778  0.48230605  0.28828010    -0.39800
N885        N  0.69066505  0.53977611  0.35167668    -0.39600
N886        N  0.70655569  0.60350450  0.30390100    -0.37200
N887        N  0.80842005  0.52907836  0.23870000    -0.38300
N888        N  0.79224181  0.46622812  0.28702911    -0.39900
C889        C  0.86296830  0.83452179  0.23238700    -0.04900
C890        C  0.84897488  0.82851463  0.20806519     0.09300
C891        C  0.85085704  0.84668214  0.18599089    -0.02200
C892        C  0.86904761  0.86906111  0.18714005    -0.00500
C893        C  0.88508114  0.87349944  0.21056889    -0.04100
C894        C  0.88094079  0.85692517  0.23363335     0.02900
C895        C  0.83616074  0.80101520  0.20446238     0.09700
C896        C  0.83510295  0.84140550  0.16163534     0.35600
C897        C  0.89651611  0.86199831  0.25819643     0.39100
C898        C  0.81024950  0.79497276  0.21542154    -0.04500
C899        C  0.80028015  0.76795980  0.21532967     0.02700
C900        C  0.81628521  0.74678590  0.20427602    -0.04100
C901        C  0.84147935  0.75328871  0.19178835    -0.00300
C902        C  0.85144849  0.78017971  0.19212260    -0.02900
C903        C  0.79446531  0.81640258  0.22791606     0.36400
C904        C  0.85743021  0.73220621  0.17882333     0.40000
C905        C  0.77438415  0.76182481  0.22825284     0.39100
C906        C  0.87822319  0.78622276  0.18101478     0.36100
C907        C  0.86020378  0.81658103  0.25557016     0.36700
C908        C  0.87297455  0.88602706  0.16343505     0.40000
N909        N  0.75373216  0.75691619  0.23857782    -0.38100
N910        N  0.78193531  0.83349884  0.23799800    -0.39700
N911        N  0.87015890  0.71540133  0.16849519    -0.37400
N912        N  0.89961443  0.79111332  0.17231359    -0.39800
N913        N  0.82240232  0.83712862  0.14228017    -0.39600
N914        N  0.87615972  0.89948906  0.14445114    -0.37200
N915        N  0.90906835  0.86601906  0.27770125    -0.38300
N916        N  0.85792484  0.80225665  0.27403936    -0.39900
C917        C  0.13016761  0.34075461  0.20618894    -0.04900
C918        C  0.13530926  0.32888258  0.18056066     0.09300
C919        C  0.12647348  0.34221570  0.15680356    -0.02200
C920        C  0.11036830  0.36576659  0.15884157    -0.00500
C921        C  0.10260359  0.37574266  0.18458459    -0.04100
C922        C  0.11363118  0.36399868  0.20820050     0.02900
C923        C  0.14643828  0.30062494  0.17881155     0.09700
C924        C  0.13220712  0.33053747  0.13036133     0.35600
C925        C  0.10610967  0.37458460  0.23465427     0.39100
C926        C  0.12921128  0.27836527  0.18473412    -0.04500
C927        C  0.13900973  0.25159740  0.18271308     0.02700
C928        C  0.16571586  0.24657227  0.17292931    -0.04100
C929        C  0.18301523  0.26905721  0.16711159    -0.00300
C930        C  0.17352612  0.29590580  0.17058882    -0.02900
C931        C  0.10093392  0.28304829  0.19199563     0.36400
C932        C  0.21010975  0.26483751  0.15615615     0.40000
C933        C  0.12155120  0.22930120  0.19126107     0.39100
C934        C  0.19142625  0.31879600  0.16517560     0.36100
C935        C  0.14040754  0.32793875  0.23056884     0.36700
C936        C  0.10016343  0.37871156  0.13449239     0.40000
N937        N  0.10762869  0.21158908  0.19823996    -0.38100
N938        N  0.07835771  0.28690413  0.19752965    -0.39700
N939        N  0.23169696  0.26155264  0.14729110    -0.37400
N940        N  0.20565130  0.33711746  0.16088790    -0.39800
N941        N  0.13677331  0.32115013  0.10928747    -0.39600
N942        N  0.09205567  0.38910386  0.11508435    -0.37200
N943        N  0.09996833  0.38305807  0.25571363    -0.38300
N944        N  0.14854546  0.31764154  0.25001121    -0.39900
C945        C  0.95833377  0.36328462  0.20482124    -0.04900
C946        C  0.95541746  0.34295416  0.18479728     0.09300
C947        C  0.97686844  0.33809843  0.16642438    -0.02200
C948        C  0.00061178  0.35431917  0.16711987    -0.00500
C949        C  0.00356979  0.37508271  0.18692100    -0.04100
C950        C  0.98241896  0.37917356  0.20605497     0.02900
C951        C  0.92903436  0.32788506  0.18141167     0.09700
C952        C  0.97438108  0.31628016  0.14670524     0.35600
C953        C  0.98576040  0.39900632  0.22761701     0.39100
C954        C  0.91008886  0.33688230  0.16195057    -0.04500
C955        C  0.88621959  0.32168985  0.15671169     0.02700
C956        C  0.88113550  0.29716971  0.17086126    -0.04100
C957        C  0.89992266  0.28845591  0.19073566    -0.00300
C958        C  0.92381159  0.30377529  0.19596317    -0.02900
C959        C  0.91567754  0.36147926  0.14671076     0.36400
C960        C  0.89443514  0.26403382  0.20621533     0.40000
C961        C  0.86753855  0.33081515  0.13582923     0.39100
C962        C  0.94331418  0.29452004  0.21594344     0.36100
C963        C  0.93653977  0.36768264  0.22421159     0.36700
C964        C  0.02153347  0.35006705  0.14670684     0.40000
N965        N  0.85267947  0.33815020  0.11918659    -0.38100
N966        N  0.92033325  0.38102520  0.13453271    -0.39700
N967        N  0.89001833  0.24458097  0.21861943    -0.37400
N968        N  0.95888747  0.28712040  0.23188374    -0.39800
N969        N  0.97237623  0.29874923  0.13114503    -0.39600
N970        N  0.03811268  0.34657117  0.13035576    -0.37200
N971        N  0.98848067  0.41474201  0.24490393    -0.38300
N972        N  0.91915326  0.37107516  0.23972830    -0.39900
C973        C  0.17175639  0.60248195  0.21036062    -0.04900
C974        C  0.14527932  0.59852391  0.19975192     0.09300
C975        C  0.13039864  0.62122239  0.19072394    -0.02200
C976        C  0.14161182  0.64759681  0.19278762    -0.00500
C977        C  0.16732624  0.65185223  0.20518143    -0.04100
C978        C  0.18264626  0.62900990  0.21336014     0.02900
C979        C  0.13221668  0.57077955  0.19931159     0.09700
C980        C  0.10296349  0.61755852  0.18028380     0.35600
C981        C  0.20901109  0.63271617  0.22617961     0.39100
C982        C  0.12236569  0.55911214  0.22366387    -0.04500
C983        C  0.10615979  0.53533057  0.22284833     0.02700
C984        C  0.09910686  0.52339047  0.19770933    -0.04100
C985        C  0.11058131  0.53381260  0.17357608    -0.00300
C986        C  0.12731230  0.55727946  0.17438746    -0.02900
C987        C  0.12747367  0.57251136  0.24944201     0.36400
C988        C  0.10371228  0.52135057  0.14774797     0.40000
C989        C  0.09563249  0.52375393  0.24784173     0.39100
C990        C  0.13835933  0.56838036  0.14942362     0.36100
C991        C  0.18745180  0.57920362  0.21892342     0.36700
C992        C  0.12671841  0.67039541  0.18175039     0.40000
N993        N  0.08732586  0.51443048  0.26778045    -0.38100
N994        N  0.13158334  0.58322629  0.26998981    -0.39700
N995        N  0.09814596  0.51135666  0.12717744    -0.37400
N996        N  0.14709745  0.57733302  0.12949939    -0.39800
N997        N  0.08105116  0.61462693  0.17205777    -0.39600
N998        N  0.11496294  0.68857284  0.17279346    -0.37200
N999        N  0.23004113  0.63562046  0.23645072    -0.38300
N1000       N  0.19985697  0.56057627  0.22584093    -0.39900
C1001       C  0.90688563  0.55727635  0.22163987    -0.04900
C1002       C  0.92636145  0.56483584  0.20196542     0.09300
C1003       C  0.92267213  0.58871004  0.18667090    -0.02200
C1004       C  0.89938486  0.60488274  0.19090323    -0.00500
C1005       C  0.87971798  0.59715593  0.21047602    -0.04100
C1006       C  0.88396095  0.57363346  0.22628012     0.02900
C1007       C  0.95217891  0.54910428  0.19979143     0.09700
C1008       C  0.94309267  0.59677111  0.16691239     0.35600
C1009       C  0.86597823  0.56745071  0.24889653     0.39100
C1010       C  0.95449505  0.52727456  0.18138918    -0.04500
C1011       C  0.97851926  0.51160476  0.18072793     0.02700
C1012       C  0.00014789  0.51744993  0.19891539    -0.04100
C1013       C  0.99716815  0.53884194  0.21795992    -0.00300
C1014       C  0.97365347  0.55499727  0.21783990    -0.02900
C1015       C  0.93215911  0.52114318  0.16306381     0.36400
C1016       C  0.01770589  0.54369907  0.23862248     0.40000
C1017       C  0.98113085  0.49002991  0.16084228     0.39100
C1018       C  0.97148954  0.57788713  0.23632135     0.36100
C1019       C  0.91089889  0.53292982  0.23763043     0.36700
C1020       C  0.89581520  0.62950349  0.17527424     0.40000
N1021       N  0.98314834  0.47279996  0.14497116    -0.38100
N1022       N  0.91428830  0.51632279  0.14846772    -0.39700
N1023       N  0.03375248  0.54771037  0.25538534    -0.37400
N1024       N  0.96977250  0.59626999  0.25087007    -0.39800
N1025       N  0.95941852  0.60318635  0.15116096    -0.39600
N1026       N  0.89307915  0.64926475  0.16295398    -0.37200
N1027       N  0.85200521  0.56284948  0.26729210    -0.38300
N1028       N  0.91417296  0.51348815  0.25031196    -0.39900
C1029       C  0.26193310  0.88883816  0.58428822    -0.04900
C1030       C  0.24430372  0.88659093  0.56178953     0.09300
C1031       C  0.23120697  0.86164941  0.55631783    -0.02200
C1032       C  0.23679066  0.83863566  0.57240695    -0.00500
C1033       C  0.25569078  0.84035844  0.59418114    -0.04100
C1034       C  0.26740836  0.86599062  0.60061542     0.02900
C1035       C  0.24073944  0.91033286  0.54315947     0.09700
C1036       C  0.21220679  0.85966796  0.53384201     0.35600
C1037       C  0.28573521  0.86903599  0.62353680     0.39100
C1038       C  0.25784817  0.91323970  0.52028396    -0.04500
C1039       C  0.25673135  0.93690802  0.50422680     0.02700
C1040       C  0.23843114  0.95796740  0.51098343    -0.04100
C1041       C  0.22043319  0.95441000  0.53325268    -0.00300
C1042       C  0.22164266  0.93070268  0.54926677    -0.02900
C1043       C  0.27732480  0.89215272  0.51388656     0.36400
C1044       C  0.20048058  0.97506537  0.53965252     0.40000
C1045       C  0.27556494  0.94009347  0.48170444     0.39100
C1046       C  0.20359812  0.92741945  0.57239555     0.36100
C1047       C  0.27509558  0.91466504  0.59010155     0.36700
C1048       C  0.22250149  0.81335410  0.56682187     0.40000
N1049       N  0.29061075  0.94261237  0.46375001    -0.38100
N1050       N  0.29284142  0.87527994  0.50890265    -0.39700
N1051       N  0.18458068  0.99155547  0.54474399    -0.37400
N1052       N  0.18922036  0.92478294  0.59086619    -0.39800
N1053       N  0.19703357  0.85813191  0.51591423    -0.39600
N1054       N  0.21106162  0.79320900  0.56240856    -0.37200
N1055       N  0.30012841  0.87179211  0.64196291    -0.38300
N1056       N  0.28557383  0.93529606  0.59458420    -0.39900
C1057       C  0.31293439  0.60383888  0.66863489    -0.04900
C1058       C  0.33935163  0.59900889  0.67874597     0.09300
C1059       C  0.35607253  0.62132358  0.68602866    -0.02200
C1060       C  0.34660981  0.64817223  0.68306511    -0.00500
C1061       C  0.32048101  0.65322256  0.67192276    -0.04100
C1062       C  0.30365472  0.63072281  0.66486163     0.02900
C1063       C  0.35029850  0.57061732  0.68118590     0.09700
C1064       C  0.38340321  0.61660765  0.69618613     0.35600
C1065       C  0.27725571  0.63501576  0.65240983     0.39100
C1066       C  0.35958028  0.55659853  0.65789067    -0.04500
C1067       C  0.37564263  0.53306889  0.66072314     0.02700
C1068       C  0.38286577  0.52366685  0.68678644    -0.04100
C1069       C  0.37103359  0.53583341  0.70988806    -0.00300
C1070       C  0.35455164  0.55907519  0.70708397    -0.02900
C1071       C  0.35407089  0.56731419  0.63106640     0.36400
C1072       C  0.37729126  0.52541577  0.73665696     0.40000
C1073       C  0.38636825  0.51952445  0.63685430     0.39100
C1074       C  0.34316852  0.57207299  0.73093470     0.36100
C1075       C  0.29537287  0.58103619  0.66187264     0.36700
C1076       C  0.36381582  0.67053784  0.69199786     0.40000
N1077       N  0.39490000  0.50860600  0.61785998    -0.38100
N1078       N  0.34955858  0.57578738  0.60964507    -0.39700
N1079       N  0.38227041  0.51705340  0.75801617    -0.37400
N1080       N  0.33404121  0.58253331  0.74990936    -0.39800
N1081       N  0.40515913  0.61273382  0.70429664    -0.39600
N1082       N  0.37758820  0.68831160  0.69916703    -0.37200
N1083       N  0.25623494  0.63843243  0.64238257    -0.38300
N1084       N  0.28137905  0.56282399  0.65646141    -0.39900
C1085       C  0.22342652  0.80850176  0.83799827    -0.04900
C1086       C  0.24597897  0.80348931  0.82088177     0.09300
C1087       C  0.27195290  0.81346468  0.82849659    -0.02200
C1088       C  0.27476932  0.83062926  0.85133094    -0.00500
C1089       C  0.25161350  0.83849029  0.86634465    -0.04100
C1090       C  0.22619390  0.82617227  0.86057523     0.02900
C1091       C  0.24230031  0.79084354  0.79325294     0.09700
C1092       C  0.29555884  0.80734890  0.81186260     0.35600
C1093       C  0.20265937  0.83282134  0.87703540     0.39100
C1094       C  0.23285591  0.80690431  0.77154757    -0.04500
C1095       C  0.23554226  0.79777401  0.74446499     0.02700
C1096       C  0.24791341  0.77249264  0.73875000    -0.04100
C1097       C  0.25419083  0.75505750  0.76072287    -0.00300
C1098       C  0.25139345  0.76427782  0.78785272    -0.02900
C1099       C  0.22124668  0.83334621  0.77706926     0.36400
C1100       C  0.26491338  0.72819003  0.75562048     0.40000
C1101       C  0.22562149  0.81456489  0.72245409     0.39100
C1102       C  0.25861787  0.74678184  0.81030107     0.36100
C1103       C  0.19723921  0.79629497  0.83169350     0.36700
C1104       C  0.30142938  0.84095290  0.85896238     0.40000
N1105       N  0.21763853  0.82794241  0.70492672    -0.38100
N1106       N  0.21181172  0.85433719  0.78156591    -0.39700
N1107       N  0.27333278  0.70668327  0.75155394    -0.37400
N1108       N  0.26425278  0.73278718  0.82824981    -0.39800
N1109       N  0.31431764  0.80238733  0.79852325    -0.39600
N1110       N  0.32275220  0.84895687  0.86520774    -0.37200
N1111       N  0.18392931  0.83809061  0.89029204    -0.38300
N1112       N  0.17637093  0.78641742  0.82669385    -0.39900
C1113       C  0.60020165  0.24217043  0.84696626    -0.04900
C1114       C  0.60727945  0.22406230  0.86787453     0.09300
C1115       C  0.63031670  0.20732858  0.86480431    -0.02200
C1116       C  0.64649784  0.20898772  0.84110004    -0.00500
C1117       C  0.63948171  0.22716379  0.82009877    -0.04100
C1118       C  0.61620758  0.24378052  0.82319236     0.02900
C1119       C  0.59095110  0.22324447  0.89360347     0.09700
C1120       C  0.63727710  0.18835512  0.88612564     0.35600
C1121       C  0.60933091  0.26349390  0.80246304     0.39100
C1122       C  0.56954994  0.20428953  0.89672616    -0.04500
C1123       C  0.55517106  0.20256760  0.92155741     0.02700
C1124       C  0.56142106  0.22054395  0.94321525    -0.04100
C1125       C  0.58229035  0.24025749  0.93950897    -0.00300
C1126       C  0.59722773  0.24125566  0.91500268    -0.02900
C1127       C  0.56264122  0.18627884  0.87439551     0.36400
C1128       C  0.58831563  0.25991279  0.96067693     0.40000
C1129       C  0.53520596  0.18109682  0.92522996     0.39100
C1130       C  0.61944753  0.26058530  0.91186012     0.36100
C1131       C  0.57649236  0.25932399  0.85008726     0.36700
C1132       C  0.67007441  0.19163482  0.83817536     0.40000
N1133       N  0.51951274  0.16372579  0.92813142    -0.38100
N1134       N  0.55712051  0.17201427  0.85649784    -0.39700
N1135       N  0.59331787  0.27574105  0.97736646    -0.37400
N1136       N  0.63726718  0.27587570  0.90931758    -0.39800
N1137       N  0.64268642  0.17316502  0.90314418    -0.39600
N1138       N  0.68892526  0.17783230  0.83587199    -0.37200
N1139       N  0.60392479  0.27926283  0.78597235    -0.38300
N1140       N  0.55757049  0.27299202  0.85259254    -0.39900
C1141       C  0.52065226  0.35093096  0.67040474    -0.04900
C1142       C  0.53740628  0.35221546  0.69365588     0.09300
C1143       C  0.53124564  0.37080240  0.71461767    -0.02200
C1144       C  0.50768245  0.38700047  0.71299516    -0.00500
C1145       C  0.49034690  0.38498608  0.69019810    -0.04100
C1146       C  0.49721307  0.36728825  0.66866457     0.02900
C1147       C  0.56136728  0.33368223  0.69638796     0.09700
C1148       C  0.54889150  0.37273207  0.73816781     0.35600
C1149       C  0.47998281  0.36580664  0.64477099     0.39100
C1150       C  0.58770335  0.34307980  0.68995681    -0.04500
C1151       C  0.61051898  0.32617411  0.69361670     0.02700
C1152       C  0.60734998  0.29950918  0.70446398    -0.04100
C1153       C  0.58050079  0.29009727  0.71045819    -0.00300
C1154       C  0.55776068  0.30706123  0.70620339    -0.02900
C1155       C  0.59128832  0.37052089  0.67984933     0.36400
C1156       C  0.57589359  0.26341690  0.72206145     0.40000
C1157       C  0.63712251  0.33666455  0.68586003     0.39100
C1158       C  0.53047850  0.29735491  0.71248960     0.36100
C1159       C  0.52739102  0.33247202  0.64846711     0.36700
C1160       C  0.50039463  0.40448074  0.73554653     0.40000
N1161       N  0.65825859  0.34522786  0.67968349    -0.38100
N1162       N  0.59408187  0.39245398  0.67193977    -0.39700
N1163       N  0.57202648  0.24219033  0.73136998    -0.37400
N1164       N  0.50869308  0.28966648  0.71741978    -0.39800
N1165       N  0.56310538  0.37427555  0.75685897    -0.39600
N1166       N  0.49447745  0.41824620  0.75365367    -0.37200
N1167       N  0.46624162  0.36472295  0.62570104    -0.38300
N1168       N  0.53279573  0.31771182  0.63099074    -0.39900
C1169       C  0.74937146  0.27529026  0.59144068    -0.04900
C1170       C  0.72971550  0.29225301  0.57934409     0.09300
C1171       C  0.70475754  0.29668407  0.59289314    -0.02200
C1172       C  0.70020290  0.28566979  0.61893370    -0.00500
C1173       C  0.72106851  0.27122750  0.63237746    -0.04100
C1174       C  0.74523127  0.26503736  0.61798065     0.02900
C1175       C  0.73651851  0.30855958  0.55442111     0.09700
C1176       C  0.68413205  0.31362794  0.58053801     0.35600
C1177       C  0.76637247  0.24915418  0.63078759     0.39100
C1178       C  0.72314240  0.30379032  0.52940328    -0.04500
C1179       C  0.72530030  0.32291118  0.50801774     0.02700
C1180       C  0.74135889  0.34663442  0.51140987    -0.04100
C1181       C  0.75737452  0.34943140  0.53526298    -0.00300
C1182       C  0.75439218  0.33095839  0.55685197    -0.02900
C1183       C  0.70618519  0.27980700  0.52620344     0.36400
C1184       C  0.77644654  0.37193623  0.53811645     0.40000
C1185       C  0.70962180  0.31893514  0.48338103     0.39100
C1186       C  0.76841047  0.33606158  0.58234825     0.36100
C1187       C  0.77430485  0.26926160  0.57686775     0.36700
C1188       C  0.67362102  0.28857129  0.63153562     0.40000
N1189       N  0.69712670  0.31572800  0.46369186    -0.38100
N1190       N  0.69262732  0.26066604  0.52367932    -0.39700
N1191       N  0.79154401  0.38992615  0.54050792    -0.37400
N1192       N  0.77947857  0.34009220  0.60272486    -0.39800
N1193       N  0.66770803  0.32714038  0.57065775    -0.39600
N1194       N  0.65227667  0.29054160  0.64133149    -0.37200
N1195       N  0.78323839  0.23641863  0.64096294    -0.38300
N1196       N  0.79420416  0.26450907  0.56520679    -0.39900
C1197       C  0.84164535  0.22038808  0.75906603    -0.04900
C1198       C  0.84539517  0.20571783  0.78335335     0.09300
C1199       C  0.82307355  0.19146062  0.79469174    -0.02200
C1200       C  0.79681884  0.19364076  0.78312294    -0.00500
C1201       C  0.79250824  0.21034027  0.76019523    -0.04100
C1202       C  0.81532797  0.22277109  0.74752860     0.02900
C1203       C  0.87168147  0.20798726  0.79902255     0.09700
C1204       C  0.82698637  0.17535807  0.81898312     0.35600
C1205       C  0.81158652  0.23949069  0.72364103     0.39100
C1206       C  0.87556434  0.23006412  0.81695054    -0.04500
C1207       C  0.89785335  0.23049075  0.83505584     0.02700
C1208       C  0.91660407  0.20881202  0.83551371    -0.04100
C1209       C  0.91375897  0.18759607  0.81633953    -0.00300
C1210       C  0.89141527  0.18725388  0.79806835    -0.02900
C1211       C  0.85574359  0.25175322  0.81773037     0.36400
C1212       C  0.93262333  0.16511832  0.81680548     0.40000
C1213       C  0.90079748  0.25277569  0.85417964     0.39100
C1214       C  0.88806917  0.16506159  0.77899807     0.36100
C1215       C  0.86480931  0.23381328  0.74652999     0.36700
C1216       C  0.77413998  0.17874669  0.79494203     0.40000
N1217       N  0.90304072  0.27049131  0.86949979    -0.38100
N1218       N  0.83991550  0.26903137  0.81836812    -0.39700
N1219       N  0.94766600  0.14714966  0.81731567    -0.37400
N1220       N  0.88538579  0.14737147  0.76371967    -0.39800
N1221       N  0.83020181  0.16250523  0.83834503    -0.39600
N1222       N  0.75604490  0.16680062  0.80427999    -0.37200
N1223       N  0.80860446  0.25285145  0.70458649    -0.38300
N1224       N  0.88334940  0.24444185  0.73650717    -0.39900
C1225       C  0.78325724  0.42179985  0.04215115    -0.04900
C1226       C  0.76803376  0.39879740  0.03417786     0.09300
C1227       C  0.75116051  0.39992987  0.01110895    -0.02200
C1228       C  0.74902332  0.42423859  0.99627901    -0.00500
C1229       C  0.76369671  0.44768377  0.00459615    -0.04100
C1230       C  0.78124734  0.44613568  0.02736932     0.02900
C1231       C  0.76959160  0.37341728  0.05046944     0.09700
C1232       C  0.73544468  0.37618382  0.00310374     0.35600
C1233       C  0.79762146  0.46940973  0.03547892     0.39100
C1234       C  0.75012490  0.36823109  0.07094994    -0.04500
C1235       C  0.75253439  0.34509235  0.08749047     0.02700
C1236       C  0.77444150  0.32708934  0.08355545    -0.04100
C1237       C  0.79369504  0.33211553  0.06273715    -0.00300
C1238       C  0.79114380  0.35516245  0.04612855    -0.02900
C1239       C  0.72773983  0.38686719  0.07504961     0.36400
C1240       C  0.81691871  0.31434601  0.05925496     0.40000
C1241       C  0.73225753  0.33958696  0.10826382     0.39100
C1242       C  0.81085344  0.36035449  0.02474074     0.36100
C1243       C  0.80060381  0.42045957  0.06596865     0.36700
C1244       C  0.73071446  0.42521050  0.97323307     0.40000
N1245       N  0.71608805  0.33514798  0.12482923    -0.38100
N1246       N  0.70987122  0.40174674  0.07821886    -0.39700
N1247       N  0.83554183  0.30030003  0.05659834    -0.37400
N1248       N  0.82653557  0.36452615  0.00765309    -0.39800
N1249       N  0.72280731  0.35728422  0.99682026    -0.39600
N1250       N  0.71609055  0.42578553  0.95483985    -0.37200
N1251       N  0.81069718  0.48793081  0.04201346    -0.38300
N1252       N  0.81434664  0.41925967  0.08501283    -0.39900
C1253       C  0.72824443  0.55834383  0.05816143    -0.04900
C1254       C  0.74535107  0.58141834  0.05685640     0.09300
C1255       C  0.75904990  0.58744470  0.03229086    -0.02200
C1256       C  0.75834598  0.56879997  0.01037108    -0.00500
C1257       C  0.74356915  0.54421810  0.01287012    -0.04100
C1258       C  0.72700465  0.54008389  0.03611640     0.02900
C1259       C  0.75207075  0.59672036  0.08246916     0.09700
C1260       C  0.77509598  0.61215547  0.03026695     0.35600
C1261       C  0.70931558  0.51639381  0.03777709     0.39100
C1262       C  0.77701533  0.59165099  0.09570994    -0.04500
C1263       C  0.78257924  0.60336629  0.12128323     0.02700
C1264       C  0.76292849  0.61984514  0.13438895    -0.04100
C1265       C  0.73869691  0.62636442  0.12026148    -0.00300
C1266       C  0.73322350  0.61464335  0.09450817    -0.02900
C1267       C  0.79672107  0.57357599  0.08331255     0.36400
C1268       C  0.71902960  0.64458786  0.13233406     0.40000
C1269       C  0.80898279  0.59886714  0.13375100     0.39100
C1270       C  0.70788128  0.62043948  0.08063892     0.36100
C1271       C  0.71326458  0.55240365  0.08289706     0.36700
C1272       C  0.77436278  0.57408056  0.98618078     0.40000
N1273       N  0.83008578  0.59534535  0.14357049    -0.38100
N1274       N  0.81236049  0.55918817  0.07331174    -0.39700
N1275       N  0.70340381  0.65937759  0.14173593    -0.37400
N1276       N  0.68759142  0.62494027  0.06962249    -0.39800
N1277       N  0.78789252  0.63190406  0.02877763    -0.39600
N1278       N  0.78712924  0.57835947  0.96685865    -0.37200
N1279       N  0.69531107  0.49744654  0.03903381    -0.38300
N1280       N  0.70130095  0.54762436  0.10260521    -0.39900
C1281       C  0.71903163  0.57263322  0.82829554    -0.04900
C1282       C  0.74378248  0.58324539  0.81803873     0.09300
C1283       C  0.76838718  0.57803448  0.83184589    -0.02200
C1284       C  0.76856778  0.56022321  0.85424683    -0.00500
C1285       C  0.74415666  0.54764561  0.86286493    -0.04100
C1286       C  0.71924401  0.55475317  0.85060254     0.02900
C1287       C  0.74414840  0.59659641  0.79074997     0.09700
C1288       C  0.79366196  0.58982562  0.82201336     0.35600
C1289       C  0.69401611  0.54243380  0.86001135     0.39100
C1290       C  0.73627907  0.62384995  0.78771792    -0.04500
C1291       C  0.73294732  0.63501836  0.76149934     0.02700
C1292       C  0.73703534  0.61870057  0.73805253    -0.04100
C1293       C  0.74719141  0.59203908  0.74137792    -0.00300
C1294       C  0.75049353  0.58103059  0.76755674    -0.02900
C1295       C  0.73056954  0.64000069  0.81168655     0.36400
C1296       C  0.75425802  0.57568352  0.71789394     0.40000
C1297       C  0.72410455  0.66290421  0.75896286     0.39100
C1298       C  0.75936510  0.55316113  0.77066396     0.36100
C1299       C  0.69354425  0.57886738  0.81484802     0.36700
C1300       C  0.79409429  0.55325158  0.86721526     0.40000
N1301       N  0.71723000  0.68523029  0.75704205    -0.38100
N1302       N  0.72591606  0.65277003  0.83087081    -0.39700
N1303       N  0.75990118  0.56250634  0.69926762    -0.37400
N1304       N  0.76641634  0.53095738  0.77322143    -0.39800
N1305       N  0.81384175  0.59921369  0.81412619    -0.39600
N1306       N  0.81438972  0.54755928  0.87763518    -0.37200
N1307       N  0.67389973  0.53259187  0.86751366    -0.38300
N1308       N  0.67325066  0.58395519  0.80410360    -0.39900
C1309       C  0.72321951  0.40602769  0.85539544    -0.04900
C1310       C  0.74187961  0.40115041  0.83408030     0.09300
C1311       C  0.76340933  0.41971297  0.82940562    -0.02200
C1312       C  0.76588946  0.44327519  0.84555434    -0.00500
C1313       C  0.74624638  0.44895066  0.86576403    -0.04100
C1314       C  0.72484318  0.43028175  0.87055549     0.02900
C1315       C  0.73750187  0.37758095  0.81528277     0.09700
C1316       C  0.78255892  0.41491637  0.80747193     0.35600
C1317       C  0.70319515  0.43705499  0.88941398     0.39100
C1318       C  0.71543086  0.37784776  0.79687257    -0.04500
C1319       C  0.71019863  0.35524843  0.78004665     0.02700
C1320       C  0.72744904  0.33240338  0.78099834    -0.04100
C1321       C  0.75017207  0.33259729  0.79866737    -0.00300
C1322       C  0.75498648  0.35496731  0.81597783    -0.02900
C1323       C  0.69766608  0.40124128  0.79570649     0.36400
C1324       C  0.76869519  0.30977449  0.79893169     0.40000
C1325       C  0.68602073  0.35494063  0.76305764     0.39100
C1326       C  0.77756259  0.35445403  0.83495960     0.36100
C1327       C  0.70196418  0.38628865  0.86130424     0.36700
C1328       C  0.78863338  0.46175148  0.84130706     0.40000
N1329       N  0.66665011  0.35465974  0.74966006    -0.38100
N1330       N  0.68342508  0.41983888  0.79494520    -0.39700
N1331       N  0.78335496  0.29148654  0.79896834    -0.37400
N1332       N  0.79561993  0.35404593  0.85005352    -0.39800
N1333       N  0.79781469  0.41097191  0.78998241    -0.39600
N1334       N  0.80682941  0.47644095  0.83799185    -0.37200
N1335       N  0.68562243  0.44270330  0.90402096    -0.38300
N1336       N  0.68506313  0.37049406  0.86602381    -0.39900
C1337       C  0.38753821  0.67892168  0.30728725    -0.04900
C1338       C  0.37523938  0.70392648  0.30088027     0.09300
C1339       C  0.38763621  0.72837565  0.30961346    -0.02200
C1340       C  0.41069148  0.72768197  0.32665894    -0.00500
C1341       C  0.42097160  0.70261641  0.33565048    -0.04100
C1342       C  0.41029795  0.67825987  0.32481108     0.02900
C1343       C  0.34752297  0.70457631  0.28811111     0.09700
C1344       C  0.37563349  0.75420105  0.30246391     0.35600
C1345       C  0.42173763  0.65250359  0.33298606     0.39100
C1346       C  0.32437289  0.69893327  0.30420213    -0.04500
C1347       C  0.29800297  0.70222733  0.29345635     0.02700
C1348       C  0.29439802  0.71257970  0.26684702    -0.04100
C1349       C  0.31769493  0.71712267  0.25035385    -0.00300
C1350       C  0.34411517  0.71269632  0.26087950    -0.02900
C1351       C  0.32770416  0.69083778  0.33234172     0.36400
C1352       C  0.31480565  0.72794989  0.22316584     0.40000
C1353       C  0.27456348  0.69490601  0.30999879     0.39100
C1354       C  0.36794139  0.71723050  0.24399961     0.36100
C1355       C  0.37583629  0.65386818  0.29697025     0.36700
C1356       C  0.42349836  0.75276015  0.33557291     0.40000
N1357       N  0.25588379  0.68906196  0.32317487    -0.38100
N1358       N  0.33039701  0.68451129  0.35479907    -0.39700
N1359       N  0.31265885  0.73671727  0.20149403    -0.37400
N1360       N  0.38701817  0.72078323  0.23059631    -0.39800
N1361       N  0.36598722  0.77476682  0.29674300    -0.39600
N1362       N  0.43389833  0.77276654  0.34244520    -0.37200
N1363       N  0.43095744  0.63198388  0.33951422    -0.38300
N1364       N  0.36644449  0.63389322  0.28872129    -0.39900
C1365       C  0.35468521  0.71076358  0.51039742    -0.04900
C1366       C  0.38033061  0.72372785  0.50843756     0.09300
C1367       C  0.38938261  0.74072117  0.52968399    -0.02200
C1368       C  0.37269621  0.74510598  0.55263977    -0.00500
C1369       C  0.34685389  0.73214810  0.55471834    -0.04100
C1370       C  0.33806748  0.71480208  0.53348232     0.02900
C1371       C  0.39733264  0.72019838  0.48339946     0.09700
C1372       C  0.41591483  0.75375769  0.52780141     0.35600
C1373       C  0.31246515  0.70015616  0.53576764     0.39100
C1374       C  0.39413570  0.73811361  0.46140372    -0.04500
C1375       C  0.40861441  0.73389312  0.43700758     0.02700
C1376       C  0.42676566  0.71176693  0.43445920    -0.04100
C1377       C  0.43058528  0.69433172  0.45697524    -0.00300
C1378       C  0.41585705  0.69854853  0.48129853    -0.02900
C1379       C  0.37571497  0.76089418  0.46391935     0.36400
C1380       C  0.44864259  0.67124495  0.45483791     0.40000
C1381       C  0.40485119  0.75267883  0.41471454     0.39100
C1382       C  0.41936866  0.68036071  0.50412178     0.36100
C1383       C  0.34550716  0.69313835  0.48856192     0.36700
C1384       C  0.38191129  0.76366546  0.57371369     0.40000
N1385       N  0.40148268  0.76779833  0.39711382    -0.38100
N1386       N  0.36108438  0.77909361  0.46601380    -0.39700
N1387       N  0.46303457  0.65281132  0.45315987    -0.37400
N1388       N  0.42212194  0.66588166  0.52236980    -0.39800
N1389       N  0.43711964  0.76407458  0.52629926    -0.39600
N1390       N  0.38925085  0.77845922  0.59051694    -0.37200
N1391       N  0.29215438  0.68822964  0.53751769    -0.38300
N1392       N  0.33831287  0.67909539  0.47107800    -0.39900
C1393       C  0.60111084  0.65952368  0.46083608    -0.04900
C1394       C  0.59509546  0.67752223  0.48224420     0.09300
C1395       C  0.57415185  0.69667089  0.47918126    -0.02200
C1396       C  0.55920112  0.69790000  0.45473685    -0.00500
C1397       C  0.56509324  0.67981488  0.43307241    -0.04100
C1398       C  0.58614062  0.66050823  0.43641266     0.02900
C1399       C  0.61057376  0.67589300  0.50832734     0.09700
C1400       C  0.56818510  0.71527235  0.50124974     0.35600
C1401       C  0.59207310  0.64100732  0.41512804     0.39100
C1402       C  0.63382630  0.69233119  0.51252991    -0.04500
C1403       C  0.64866773  0.69041209  0.53696856     0.02700
C1404       C  0.64061087  0.67165665  0.55718435    -0.04100
C1405       C  0.61720566  0.65521441  0.55288969    -0.00300
C1406       C  0.60219742  0.65747835  0.52859934    -0.02900
C1407       C  0.64269113  0.71091994  0.49145232     0.36400
C1408       C  0.60920201  0.63500820  0.57283245     0.40000
C1409       C  0.67182217  0.70826531  0.54153598     0.39100
C1410       C  0.57836531  0.64046803  0.52412122     0.36100
C1411       C  0.62283753  0.63995893  0.46405295     0.36700
C1412       C  0.53839990  0.71846314  0.45178184     0.40000
N1413       N  0.69017858  0.72266663  0.54518319    -0.38100
N1414       N  0.64983060  0.72566398  0.47458388    -0.39700
N1415       N  0.60284633  0.61883707  0.58867516    -0.37400
N1416       N  0.55937701  0.62690649  0.52042745    -0.39800
N1417       N  0.56352588  0.73011005  0.51887639    -0.39600
N1418       N  0.52177957  0.73485001  0.44951781    -0.37200
N1419       N  0.59698240  0.62538375  0.39826834    -0.38300
N1420       N  0.64020175  0.62442178  0.46670799    -0.39900
C1421       C  0.59780508  0.70696280  0.30309497    -0.04900
C1422       C  0.61092480  0.68247171  0.29620493     0.09300
C1423       C  0.60012339  0.65761634  0.30577397    -0.02200
C1424       C  0.57823227  0.65752782  0.32438957    -0.00500
C1425       C  0.56721574  0.68224571  0.33364142    -0.04100
C1426       C  0.57622204  0.70688941  0.32207647     0.02900
C1427       C  0.63858558  0.68311376  0.28318566     0.09700
C1428       C  0.61265246  0.63224502  0.29779774     0.35600
C1429       C  0.56477348  0.73231527  0.33138588     0.39100
C1430       C  0.66130604  0.69115885  0.29889837    -0.04500
C1431       C  0.68782357  0.68962311  0.28805860     0.02700
C1432       C  0.69218275  0.67852618  0.26183387    -0.04100
C1433       C  0.66929488  0.67106688  0.24584162    -0.00300
C1434       C  0.64258638  0.67402564  0.25628606    -0.02900
C1435       C  0.65747382  0.69997343  0.32680872     0.36400
C1436       C  0.67307708  0.65844617  0.21949500     0.40000
C1437       C  0.71065680  0.69936625  0.30419510     0.39100
C1438       C  0.61917557  0.66710012  0.23964890     0.36100
C1439       C  0.60770062  0.73236171  0.29188956     0.36700
C1440       C  0.56783680  0.63206735  0.33503297     0.40000
N1441       N  0.72883560  0.70710765  0.31709010    -0.38100
N1442       N  0.65433136  0.70688256  0.34906943    -0.39700
N1443       N  0.67598540  0.64807781  0.19859036    -0.37400
N1444       N  0.60046616  0.66166188  0.22636590    -0.39800
N1445       N  0.62263290  0.61203843  0.29129487    -0.39600
N1446       N  0.55949537  0.61173588  0.34344574    -0.37200
N1447       N  0.55568901  0.75255876  0.33900240    -0.38300
N1448       N  0.61563998  0.75261478  0.28293451    -0.39900
C1449       C  0.09963131  0.69572125  0.41721019    -0.04900
C1450       C  0.09378747  0.71517799  0.39718259     0.09300
C1451       C  0.07105154  0.73228779  0.40023495    -0.02200
C1452       C  0.05463303  0.73051585  0.42372264    -0.00500
C1453       C  0.06121743  0.71186550  0.44444192    -0.04100
C1454       C  0.08351888  0.69412615  0.44083372     0.02900
C1455       C  0.11218133  0.71817957  0.37320069     0.09700
C1456       C  0.06497900  0.75208557  0.37938254     0.35600
C1457       C  0.08984487  0.67401185  0.46134578     0.39100
C1458       C  0.10846844  0.70158548  0.35016611    -0.04500
C1459       C  0.12581888  0.70448010  0.32750870     0.02700
C1460       C  0.14662212  0.72459620  0.32746855    -0.04100
C1461       C  0.15051886  0.74093311  0.35090605    -0.00300
C1462       C  0.13347130  0.73751564  0.37373395    -0.02900
C1463       C  0.08646556  0.68177758  0.34971880     0.36400
C1464       C  0.17113327  0.76220007  0.35126157     0.40000
C1465       C  0.12245551  0.68634866  0.30445532     0.39100
C1466       C  0.13749014  0.75420636  0.39774386     0.36100
C1467       C  0.12248879  0.67754771  0.41357419     0.36700
C1468       C  0.03173146  0.74868622  0.42699866     0.40000
N1469       N  0.11980104  0.67187007  0.28608981    -0.38100
N1470       N  0.06883376  0.66606714  0.34939333    -0.39700
N1471       N  0.18752172  0.77920228  0.35159524    -0.37400
N1472       N  0.14062691  0.76747723  0.41692426    -0.39800
N1473       N  0.06026688  0.76789806  0.36272494    -0.39600
N1474       N  0.01342416  0.76315361  0.42954980    -0.37200
N1475       N  0.09490593  0.65807204  0.47777971    -0.38300
N1476       N  0.14066396  0.66300293  0.41058526    -0.39900
C1477       C  0.14532342  0.71531176  0.61470935    -0.04900
C1478       C  0.14096390  0.70918374  0.58709693     0.09300
C1479       C  0.16350194  0.70398375  0.57009350    -0.02200
C1480       C  0.19032992  0.70643892  0.58023232    -0.00500
C1481       C  0.19496738  0.71441409  0.60754386    -0.04100
C1482       C  0.17213148  0.71783211  0.62499207     0.02900
C1483       C  0.11296184  0.71081757  0.57500473     0.09700
C1484       C  0.15899689  0.69702045  0.54177411     0.35600
C1485       C  0.17590351  0.72541494  0.65323982     0.39100
C1486       C  0.10375281  0.73583937  0.56475406    -0.04500
C1487       C  0.08005705  0.73682379  0.54860745     0.02700
C1488       C  0.06518502  0.71285013  0.54287441    -0.04100
C1489       C  0.07302868  0.68825433  0.55516721    -0.00300
C1490       C  0.09691803  0.68723140  0.57119029    -0.02900
C1491       C  0.11967775  0.76030716  0.56947733     0.36400
C1492       C  0.05777571  0.66360755  0.54944407     0.40000
C1493       C  0.07203327  0.76221831  0.53621128     0.39100
C1494       C  0.10584858  0.66169226  0.58252635     0.36100
C1495       C  0.12209086  0.72008571  0.63226826     0.36700
C1496       C  0.21307759  0.70061269  0.56237675     0.40000
N1497       N  0.06571976  0.78243800  0.52619842    -0.38100
N1498       N  0.13248371  0.77973964  0.57332170    -0.39700
N1499       N  0.04557709  0.64397051  0.54477950    -0.37400
N1500       N  0.11300678  0.64130640  0.59158069    -0.39800
N1501       N  0.15529928  0.69151512  0.51920363    -0.39600
N1502       N  0.23106973  0.69589622  0.54795314    -0.37200
N1503       N  0.17886883  0.73138515  0.67580261    -0.38300
N1504       N  0.10352296  0.72394477  0.64622873    -0.39900
C1505       C  0.88851980  0.71898236  0.57731543    -0.04900
C1506       C  0.86954691  0.69732676  0.57669438     0.09300
C1507       C  0.87480834  0.67442960  0.56032082    -0.02200
C1508       C  0.89741433  0.67433346  0.54268624    -0.00500
C1509       C  0.91503491  0.69710591  0.54135396    -0.04100
C1510       C  0.91144378  0.71874622  0.55983701     0.02900
C1511       C  0.84272807  0.69917334  0.59114588     0.09700
C1512       C  0.85613225  0.65146926  0.56071647     0.35600
C1513       C  0.93040708  0.74141102  0.55976605     0.39100
C1514       C  0.81944620  0.70731487  0.57659331    -0.04500
C1515       C  0.79325099  0.70378539  0.58791489     0.02700
C1516       C  0.79005171  0.69182045  0.61387721    -0.04100
C1517       C  0.81362827  0.68618647  0.62945910    -0.00300
C1518       C  0.83986422  0.68976853  0.61801363    -0.02900
C1519       C  0.82246710  0.71831095  0.54941360     0.36400
C1520       C  0.81107232  0.67516005  0.65662769     0.40000
C1521       C  0.76957973  0.71235637  0.57263120     0.39100
C1522       C  0.86395919  0.68261984  0.63334968     0.36100
C1523       C  0.88368564  0.74200267  0.59497445     0.36700
C1524       C  0.90204894  0.65110969  0.52512979     0.40000
N1525       N  0.75079295  0.71928268  0.56034941    -0.38100
N1526       N  0.82492220  0.72704181  0.52773736    -0.39700
N1527       N  0.80907773  0.66645171  0.67835795    -0.37400
N1528       N  0.88326961  0.67699652  0.64551691    -0.39800
N1529       N  0.84117508  0.63321743  0.56107841    -0.39600
N1530       N  0.90575196  0.63263183  0.51109172    -0.37200
N1531       N  0.94569359  0.75939515  0.55980810    -0.38300
N1532       N  0.87978065  0.76036630  0.60910155    -0.39900
C1533       C  0.91500632  0.67815254  0.39820226    -0.04900
C1534       C  0.89087823  0.69291124  0.39384413     0.09300
C1535       C  0.88224500  0.71194936  0.41337273    -0.02200
C1536       C  0.89689560  0.71531917  0.43779626    -0.00500
C1537       C  0.92089172  0.70021164  0.44252453    -0.04100
C1538       C  0.93014340  0.68196280  0.42232249     0.02900
C1539       C  0.87364885  0.68748939  0.36931459     0.09700
C1540       C  0.85802389  0.72787804  0.40831133     0.35600
C1541       C  0.95440409  0.66595530  0.42690390     0.39100
C1542       C  0.85192749  0.66867478  0.37082949    -0.04500
C1543       C  0.83548125  0.66344188  0.34786374     0.02700
C1544       C  0.84054523  0.67723527  0.32307419    -0.04100
C1545       C  0.86162880  0.69710662  0.32214590    -0.00300
C1546       C  0.87838052  0.70177108  0.34500391    -0.02900
C1547       C  0.84675423  0.65445093  0.39611510     0.36400
C1548       C  0.86554956  0.71362423  0.29805298     0.40000
C1549       C  0.81386098  0.64330221  0.34983074     0.39100
C1550       C  0.90065287  0.72122270  0.34354450     0.36100
C1551       C  0.92379734  0.65847100  0.37814029     0.36700
C1552       C  0.88707985  0.73432988  0.45805733     0.40000
N1553       N  0.79654992  0.62732252  0.35153385    -0.38100
N1554       N  0.84269528  0.64318938  0.41633498    -0.39700
N1555       N  0.86855736  0.72691887  0.27891557    -0.37400
N1556       N  0.91851841  0.73662639  0.34236406    -0.39800
N1557       N  0.83875802  0.74058855  0.40406205    -0.39600
N1558       N  0.87904596  0.74933756  0.47425948    -0.37200
N1559       N  0.97376965  0.65321727  0.43060832    -0.38300
N1560       N  0.93077265  0.64270473  0.36217484    -0.39900
C1561       C  0.47856514  0.05841452  0.72077321    -0.04900
C1562       C  0.45539375  0.05028532  0.70586979     0.09300
C1563       C  0.45654488  0.02675382  0.68955958    -0.02200
C1564       C  0.48072790  0.01135998  0.68814538    -0.00500
C1565       C  0.50411602  0.01940691  0.70311516    -0.04100
C1566       C  0.50269587  0.04300325  0.71965848     0.02900
C1567       C  0.42930263  0.06581316  0.70853484     0.09700
C1568       C  0.43272898  0.01850179  0.67411253     0.35600
C1569       C  0.52554017  0.05100283  0.73664452     0.39100
C1570       C  0.42524567  0.08989809  0.69366730    -0.04500
C1571       C  0.40120338  0.10514802  0.69734718     0.02700
C1572       C  0.38065264  0.09601565  0.71541133    -0.04100
C1573       C  0.38455737  0.07147521  0.72978505    -0.00300
C1574       C  0.40891454  0.05670883  0.72662416    -0.02900
C1575       C  0.44587888  0.09891612  0.67454106     0.36400
C1576       C  0.36399885  0.06180480  0.74870202     0.40000
C1577       C  0.39746144  0.12999137  0.68213400     0.39100
C1578       C  0.41340046  0.03240197  0.74253351     0.36100
C1579       C  0.47741360  0.08259365  0.73760622     0.36700
C1580       C  0.48149134  0.98755460  0.67078745     0.40000
N1581       N  0.39455126  0.14983329  0.66999525    -0.38100
N1582       N  0.46233598  0.10603356  0.65922971    -0.39700
N1583       N  0.34762003  0.05392727  0.76372172    -0.37400
N1584       N  0.41714112  0.01306771  0.75524847    -0.39800
N1585       N  0.41366834  0.01199370  0.66183162    -0.39600
N1586       N  0.48199714  0.96850646  0.65701241    -0.37200
N1587       N  0.54356762  0.05758941  0.75035195    -0.38300
N1588       N  0.47652944  0.10192540  0.75095058    -0.39900
C1589       C  0.67602861  0.09901798  0.70775578    -0.04900
C1590       C  0.64979497  0.09311738  0.69761225     0.09300
C1591       C  0.63315111  0.11436323  0.68821523    -0.02200
C1592       C  0.64223238  0.14147354  0.68993017    -0.00500
C1593       C  0.66791129  0.14767682  0.70157038    -0.04100
C1594       C  0.68509211  0.12620109  0.70983611     0.02900
C1595       C  0.63824414  0.06500847  0.69908913     0.09700
C1596       C  0.60606529  0.10837225  0.67785121     0.35600
C1597       C  0.71140583  0.13196137  0.72206451     0.39100
C1598       C  0.62759393  0.05542787  0.72396171    -0.04500
C1599       C  0.61079538  0.03217847  0.72434212     0.02700
C1600       C  0.60368735  0.01916870  0.69980886    -0.04100
C1601       C  0.61677073  0.02681616  0.67546227    -0.00300
C1602       C  0.63435110  0.04960453  0.67516894    -0.02900
C1603       C  0.63215677  0.07067651  0.74879937     0.36400
C1604       C  0.61085778  0.01224230  0.65053266     0.40000
C1605       C  0.59956497  0.02236697  0.74979022     0.39100
C1606       C  0.64714562  0.05825486  0.65005559     0.36100
C1607       C  0.69321092  0.07709496  0.71704180     0.36700
C1608       C  0.62493690  0.16297580  0.67978485     0.40000
N1609       N  0.59068818  0.01437005  0.77005791    -0.38100
N1610       N  0.63575759  0.08291345  0.76857647    -0.39700
N1611       N  0.60623140  0.00055410  0.63063290    -0.37400
N1612       N  0.65744182  0.06522288  0.63007088    -0.39800
N1613       N  0.58447360  0.10352925  0.66964865    -0.39600
N1614       N  0.61110924  0.18010751  0.67175844    -0.37200
N1615       N  0.73238344  0.13653396  0.73185341    -0.38300
N1616       N  0.70682222  0.05957472  0.72456681    -0.39900
C1617       C  0.62313787  0.83438283  0.72075766    -0.04900
C1618       C  0.62948383  0.82379925  0.69483522     0.09300
C1619       C  0.62182069  0.83836767  0.67139768    -0.02200
C1620       C  0.60615708  0.86216791  0.67385348    -0.00500
C1621       C  0.59748621  0.87116070  0.69966259    -0.04100
C1622       C  0.60695190  0.85787784  0.72315310     0.02900
C1623       C  0.64177063  0.79608789  0.69205277     0.09700
C1624       C  0.62861627  0.82793196  0.64468804     0.35600
C1625       C  0.59899629  0.86774864  0.74974161     0.39100
C1626       C  0.62519915  0.77284209  0.69557373    -0.04500
C1627       C  0.63583724  0.74670609  0.69090909     0.02700
C1628       C  0.66321003  0.74344478  0.68220468    -0.04100
C1629       C  0.68006002  0.76683170  0.67966931    -0.00300
C1630       C  0.66934155  0.79296386  0.68462457    -0.02900
C1631       C  0.59681727  0.77589833  0.70329938     0.36400
C1632       C  0.70808123  0.76435963  0.67063050     0.40000
C1633       C  0.61839499  0.72319445  0.69523624     0.39100
C1634       C  0.68648552  0.81682598  0.68143573     0.36100
C1635       C  0.63225136  0.82033037  0.74489910     0.36700
C1636       C  0.59761358  0.87662922  0.64972449     0.40000
N1637       N  0.60439506  0.70450722  0.69859529    -0.38100
N1638       N  0.57420143  0.77836089  0.70947099    -0.39700
N1639       N  0.73044882  0.76244514  0.66342524    -0.37400
N1640       N  0.70007203  0.83592352  0.67880699    -0.39800
N1641       N  0.63403408  0.81954224  0.62339662    -0.39600
N1642       N  0.59084269  0.88828329  0.63052786    -0.37200
N1643       N  0.59270083  0.87569516  0.77096203    -0.38300
N1644       N  0.63955096  0.80903734  0.76411824    -0.39900
C1645       C  0.40324141  0.84592563  0.66643129    -0.04900
C1646       C  0.42090967  0.83766602  0.68733394     0.09300
C1647       C  0.41463007  0.81432902  0.70271927    -0.02200
C1648       C  0.39111460  0.79880184  0.69668146    -0.00500
C1649       C  0.37381044  0.80658984  0.67518138    -0.04100
C1650       C  0.37993329  0.83030182  0.66015058     0.02900
C1651       C  0.44764964  0.85184914  0.69101191     0.09700
C1652       C  0.43270675  0.80613620  0.72444924     0.35600
C1653       C  0.36337215  0.83761638  0.63692525     0.39100
C1654       C  0.45002531  0.87468222  0.70815073    -0.04500
C1655       C  0.47541403  0.88804361  0.71112218     0.02700
C1656       C  0.49853576  0.87875148  0.69660708    -0.04100
C1657       C  0.49569397  0.85630265  0.67874672    -0.00300
C1658       C  0.47047874  0.84275618  0.67630268    -0.02900
C1659       C  0.42622844  0.88446009  0.72255952     0.36400
C1660       C  0.51828641  0.84776499  0.66174068     0.40000
C1661       C  0.47768183  0.91101435  0.72948106     0.39100
C1662       C  0.46782289  0.81954847  0.65826271     0.36100
C1663       C  0.40958796  0.87012521  0.65086109     0.36700
C1664       C  0.38470975  0.77489739  0.71263515     0.40000
N1665       N  0.47941100  0.92939676  0.74406693    -0.38100
N1666       N  0.40719397  0.89230641  0.73394843    -0.39700
N1667       N  0.53621888  0.84097617  0.64809497    -0.37400
N1668       N  0.46564166  0.80103469  0.64391453    -0.39800
N1669       N  0.44720261  0.79970848  0.74177299    -0.39600
N1670       N  0.37962862  0.75582427  0.72538758    -0.37200
N1671       N  0.35043868  0.84327711  0.61815876    -0.38300
N1672       N  0.41468706  0.88947455  0.63854019    -0.39900
loop_ 
_geom_bond_atom_site_label_1 
_geom_bond_atom_site_label_2 
_geom_bond_distance 
_geom_bond_site_symmetry_2 
_ccdc_geom_bond_type 
C1            N2   1.354       .  A
C1            N6   1.364       .  A
C1         C1621   1.483       .  S
N2            C3   1.355       .  A
C3            N4   1.355       .  A
C3         C1656   1.489       .  S
N4            C5   1.358       .  A
C5            N6   1.368       .  A
C5            C9   1.474       .  S
C7            N8   1.361   1_545  A
C7           N12   1.357       .  A
C7         C1600   1.475       .  S
N8            C9   1.361       .  A
C9           N10   1.365       .  A
N10          C11   1.358   1_565  A
C11          N12   1.353       .  A
C11        C1565   1.500       .  S
C13          N14   1.366       .  A
C13          N18   1.356       .  A
C13        C1509   1.485       .  S
N14          C15   1.366       .  A
C15          N16   1.363       .  A
C15          C23   1.479   1_655  S
N16          C17   1.356       .  A
C17          N18   1.351       .  A
C17        C1537   1.490       .  S
C19          N20   1.352       .  A
C19          N24   1.367       .  A
C19        C1488   1.482       .  S
N20          C21   1.350       .  A
C21          N22   1.355       .  A
C21        C1453   1.484       .  S
N22          C23   1.362       .  A
C23          N24   1.369       .  A
C25          N26   1.356       .  A
C25          N30   1.362       .  A
C25        C1425   1.480       .  S
N26          C27   1.355       .  A
C27          N28   1.358       .  A
C27        C1397   1.495       .  S
N28          C29   1.360       .  A
C29          N30   1.363       .  A
C29          C35   1.475       .  S
C31          N32   1.356       .  A
C31          N36   1.361       .  A
C31        C1341   1.480       .  S
N32          C33   1.355       .  A
C33          N34   1.358       .  A
C33        C1376   1.494       .  S
N34          C35   1.362       .  A
C35          N36   1.363       .  A
C37          N38   1.355       .  A
C37          N42   1.363       .  A
C37        C1285   1.476       .  S
N38          C39   1.352       .  A
C39          N40   1.355       .  A
C39        C1313   1.482       .  S
N40          C41   1.362       .  A
C41          N42   1.364       .  A
C41          C45   1.475       .  S
C43          N44   1.367       .  A
C43          N48   1.356   1_556  A
C43        C1257   1.492   1_556  S
N44          C45   1.367       .  A
C45          N46   1.359       .  A
N46          C47   1.354       .  A
C47          N48   1.351   1_556  A
C47        C1229   1.488   1_556  S
O49          C65   1.272       .  A
O49         Zn55   2.014       .  S
C50        C1320   1.485       .  S
C50          O66   1.276       .  A
C50          O63   1.273       .  A
O51          C64   1.278       .  A
O51         Cd58   2.090       .  S
O52          C70   1.278       .  A
O52         Cd61   2.078       .  S
O53          C67   1.274       .  A
O53         Cd57   2.067       .  S
O54          C65   1.276       .  A
O54         Cd57   2.088       .  S
Zn55         O66   2.024       .  S
Zn55         O68   2.025       .  S
Zn55         O60   1.924       .  S
O56          C67   1.277       .  A
O56         Cd61   2.082       .  S
Cd57         O59   2.063       .  S
Cd57         O60   1.987       .  S
Cd58         O62   2.081       .  S
Cd58         O71   2.105       .  S
Cd58         O60   1.997       .  S
O59          C69   1.277       .  A
O60         Cd61   1.986       .  S
Cd61         O63   2.054       .  S
O62          C69   1.278       .  A
C64        C1173   1.495       .  S
C64          O68   1.277       .  A
C65        C1152   1.510       .  S
C67        C1117   1.489       .  S
C69        C1593   1.490       .  S
C70        C1201   1.498       .  S
C70          O71   1.281       .  A
O72          C88   1.275       .  A
O72         Zn78   2.029       .  S
C73        C1369   1.493       .  S
C73          O89   1.279       .  A
C73          O86   1.273       .  A
O74          C87   1.278       .  A
O74         Cd81   2.084       .  S
O75          C93   1.277       .  A
O75         Cd84   2.076       .  S
O76          C90   1.275       .  A
O76         Cd80   2.068       .  S
O77          C88   1.275       .  A
O77         Cd80   2.079       .  S
Zn78         O89   2.051       .  S
Zn78         O91   2.035       .  S
Zn78         O83   1.949       .  S
O79          C90   1.276       .  A
O79         Cd84   2.080       .  S
Cd80         O82   2.070       .  S
Cd80         O83   1.996       .  S
Cd81         O85   2.103       .  S
Cd81         O94   2.098       .  S
Cd81         O83   2.006       .  S
O82          C92   1.276       .  A
O83         Cd84   1.996       .  S
Cd84         O86   2.059       .  S
O85          C92   1.280       .  A
C87        C1481   1.501       .  S
C87          O91   1.278       .  A
C88        C1033   1.500       .  S
C90        C1649   1.484       .  S
C92        C1096   1.500       .  S
C93        C1061   1.504       .  S
C93          O94   1.279       .  A
C95          N96   1.352       .  A
C95         N100   1.364       .  A
C95         C984   1.483       .  S
N96          C97   1.352       .  A
C97          N98   1.359       .  A
C97        C1012   1.491       .  S
N98          C99   1.364       .  A
C99         N100   1.368       .  A
C99         C103   1.482       .  S
C101        N102   1.363       .  A
C101        N106   1.352       .  A
C101        C921   1.479       .  S
N102        C103   1.367       .  A
C103        N104   1.365       .  A
N104        C105   1.360       .  A
C105        N106   1.351       .  A
C105        C949   1.492       .  S
O107        C123   1.274       .  A
O107       Zn113   2.012       .  S
C108        C865   1.491       .  S
C108        O124   1.276       .  A
C108        O121   1.273       .  A
O109        C122   1.280       .  A
O109       Cd116   2.104       .  S
O110        C128   1.275       .  A
O110       Cd119   2.052       .  S
O111        C125   1.273       .  A
O111       Cd115   2.064       .  S
O112        C123   1.275       .  A
O112       Cd115   2.071       .  S
Zn113       O124   2.035       .  S
Zn113       O126   2.013       .  S
Zn113       O118   1.929       .  S
O114        C125   1.276       .  A
O114       Cd119   2.080       .  S
Cd115       O117   2.060       .  S
Cd115       O118   1.989       .  S
Cd116       O120   2.098       .  S
Cd116       O129   2.102       .  S
Cd116       O118   2.007       .  S
O117        C127   1.276       .  A
O118       Cd119   1.983       .  S
Cd119       O121   2.057       .  S
O120        C127   1.280       .  A
C122       C1264   1.499       .  S
C122        O126   1.276       .  A
C123       C1005   1.484       .  S
C125       C1544   1.497       .  S
C127        C900   1.493       .  S
C128       C1432   1.495       .  S
C128        O129   1.280       .  A
C130        N131   1.370       .  A
C130        N135   1.356       .  A
C130       C1208   1.492       .  S
N131        C132   1.370       .  A
C132        N133   1.359       .  A
C132        C138   1.484   1_655  S
N133        C134   1.354       .  A
C134        N135   1.352       .  A
C134        C837   1.490       .  S
C136        N137   1.366       .  A
C136        N141   1.357       .  A
C136        C816   1.485       .  S
N137        C138   1.366       .  A
C138        N139   1.366       .  A
N139        C140   1.359       .  A
C140        N141   1.353       .  A
C140        C788   1.501       .  S
O142        C158   1.272       .  A
O142       Zn148   2.005       .  S
C143        C844   1.493       .  S
C143        O159   1.273       .  A
C143        O156   1.275       .  A
O144        C157   1.280       .  A
O144       Cd151   2.102       .  S
O145        C163   1.278       .  A
O145       Cd154   2.072       .  S
O146        C160   1.273       .  A
O146       Cd150   2.063       .  S
O147        C158   1.273       .  A
O147       Cd150   2.062       .  S
Zn148       O159   2.006       .  S
Zn148       O161   1.997       .  S
Zn148       O153   1.919       .  S
O149        C160   1.277       .  A
O149       Cd154   2.084       .  S
Cd150       O152   2.056       .  S
Cd150       O153   1.981       .  S
Cd151       O155   2.102       .  S
Cd151       O164   2.090       .  S
Cd151       O153   1.997       .  S
O152        C162   1.275       .  A
O153       Cd154   1.987       .  S
Cd154       O156   2.075       .  S
O155        C162   1.280       .  A
C157        C697   1.497       .  S
C157        O161   1.273       .  A
C158       C1236   1.477       .  S
C160        C956   1.489       .  S
C162        C753   1.501       .  S
C163        C732   1.488       .  S
C163        O164   1.279       .  A
C165        N166   1.355   1_554  A
C165        N170   1.365       .  A
C165        C641   1.484       .  S
N166        C167   1.352       .  A
C167        N168   1.356       .  A
C167        C676   1.481       .  S
N168        C169   1.361       .  A
C169        N170   1.368   1_556  A
C169        C173   1.480       .  S
C171        N172   1.362       .  A
C171        N176   1.355   1_554  A
C171        C704   1.480       .  S
N172        C173   1.364   1_554  A
C173        N174   1.364       .  A
N174        C175   1.360       .  A
C175        N176   1.354       .  A
C175       C1124   1.496       .  S
C177        N178   1.366       .  A
C177        N182   1.358       .  A
C177       C1089   1.487       .  S
N178        C179   1.368       .  A
C179        N180   1.361       .  A
C179        C187   1.482       .  S
N180        C181   1.357       .  A
C181        N182   1.355       .  A
C181        C620   1.493       .  S
C183        N184   1.354   1_556  A
C183        N188   1.366       .  A
C183        C557   1.490   1_556  S
N184        C185   1.352   1_554  A
C185        N186   1.358       .  A
C185        C585   1.493   1_556  S
N186        C187   1.365       .  A
C187        N188   1.367       .  A
O189        C205   1.276       .  A
O189       Zn195   2.037       .  S
C190        C613   1.484       .  S
C190        O206   1.278       .  A
C190        O203   1.273       .  A
O191        C204   1.279       .  A
O191       Cd198   2.086       .  S
O192        C210   1.276       .  A
O192       Cd201   2.072       .  S
O193        C207   1.273       .  A
O193       Cd197   2.062       .  S
O194        C205   1.275       .  A
O194       Cd197   2.075       .  S
Zn195       O206   2.048       .  S
Zn195       O208   2.036       .  S
Zn195       O200   1.945       .  S
O196        C207   1.275       .  A
O196       Cd201   2.072       .  S
Cd197       O199   2.071       .  S
Cd197       O200   1.994       .  S
Cd198       O202   2.098       .  S
Cd198       O211   2.098       .  S
Cd198       O200   2.005       .  S
O199        C209   1.276       .  A
O200       Cd201   1.991       .  S
Cd201       O203   2.061       .  S
O202        C209   1.279       .  A
C204        C536   1.497       .  S
C204        O208   1.279       .  A
C205       C1572   1.493       .  S
C207        C669   1.493       .  S
C209        C508   1.492       .  S
C210        C809   1.493       .  S
C210        O211   1.278       .  A
C212        N213   1.355       .  A
C212        N217   1.365       .  A
C212        C480   1.484       .  S
N213        C214   1.354   1_545  A
C214        N215   1.357       .  A
C214        C445   1.497       .  S
N215        C216   1.362   1_565  A
C216        N217   1.366       .  A
C216        C222   1.479       .  S
C218        N219   1.356       .  A
C218        N223   1.364       .  A
C218        C529   1.482       .  S
N219        C220   1.353   1_545  A
C220        N221   1.357       .  A
C220       C1040   1.493       .  S
N221        C222   1.363   1_565  A
C222        N223   1.366       .  A
O224        C240   1.274       .  A
O224       Zn230   2.022       .  S
C225        C781   1.495       .  S
C225        O241   1.278       .  A
C225        O238   1.275       .  A
O226        C239   1.279       .  A
O226       Cd233   2.093       .  S
O227        C245   1.277       .  A
O227       Cd236   2.070       .  S
O228        C242   1.274       .  A
O228       Cd232   2.067       .  S
O229        C240   1.276       .  A
O229       Cd232   2.083       .  S
Zn230       O241   2.048       .  S
Zn230       O243   2.028       .  S
Zn230       O235   1.941       .  S
O231        C242   1.279       .  A
O231       Cd236   2.091       .  S
Cd232       O234   2.076       .  S
Cd232       O235   1.997       .  S
Cd233       O237   2.097       .  S
Cd233       O246   2.097       .  S
Cd233       O235   2.008       .  S
O234        C244   1.277       .  A
O235       Cd236   1.994       .  S
Cd236       O238   2.074       .  S
O237        C244   1.279       .  A
C239        C648   1.497       .  S
C239        O243   1.278       .  A
C240        C592   1.485       .  S
C242        C417   1.496       .  S
C244        C473   1.497       .  S
C245        C928   1.501       .  S
C245        O246   1.280       .  A
C247        N248   1.367       .  A
C247        N252   1.356       .  A
C247        C893   1.486       .  S
N248        C249   1.368       .  A
C249        N250   1.359       .  A
C249        C257   1.478       .  S
N250        C251   1.353       .  A
C251        N252   1.352       .  A
C251        C389   1.485       .  S
C253        N254   1.355       .  A
C253        N258   1.365   1_545  A
C253        C725   1.483       .  S
N254        C255   1.352       .  A
C255        N256   1.356   1_545  A
C255        C424   1.495       .  S
N256        C257   1.363       .  A
C257        N258   1.366       .  A
O259        C275   1.274       .  A
O259       Zn265   2.024       .  S
C260        C452   1.492       .  S
C260        O276   1.278       .  A
C260        O273   1.273       .  A
O261        C274   1.280       .  A
O261       Cd268   2.095       .  S
O262        C280   1.275       .  A
O262       Cd271   2.053       .  S
O263        C277   1.272       .  A
O263       Cd267   2.056       .  S
O264        C275   1.274       .  A
O264       Cd267   2.061       .  S
Zn265       O276   2.044       .  S
Zn265       O278   2.037       .  S
Zn265       O270   1.938       .  S
O266        C277   1.275       .  A
O266       Cd271   2.073       .  S
Cd267       O269   2.064       .  S
Cd267       O270   1.985       .  S
Cd268       O272   2.105       .  S
Cd268       O281   2.103       .  S
Cd268       O270   2.006       .  S
O269        C279   1.275       .  A
O270       Cd271   1.985       .  S
Cd271       O273   2.061       .  S
O272        C279   1.279       .  A
C274        C564   1.505       .  S
C274        O278   1.280       .  A
C275        C396   1.502       .  S
C277       C1460   1.489       .  S
C279        C977   1.498       .  S
C280       C1348   1.496       .  S
C280        O281   1.281       .  A
C282        N283   1.354       .  A
C282        N287   1.366       .  A
C282        C501   1.485       .  S
N283        C284   1.350       .  A
C284        N285   1.358       .  A
C284       C1145   1.484       .  S
N285        C286   1.366       .  A
C286        N287   1.368       .  A
C286        C292   1.485       .  S
C288        N289   1.355       .  A
C288        N293   1.367       .  A
C288       C1068   1.485       .  S
N289        C290   1.352       .  A
C290        N291   1.358       .  A
C290        C361   1.493       .  S
N291        C292   1.362       .  A
C292        N293   1.369       .  A
C294        N295   1.359       .  A
C294        N299   1.366       .  A
C294        C760   1.487       .  S
N295        C296   1.354       .  A
C296        N297   1.356       .  A
C296        C872   1.490       .  S
N297        C298   1.362       .  A
C298        N299   1.365       .  A
C298        C304   1.479       .  S
C300        N301   1.355       .  A
C300        N305   1.368       .  A
C300       C1180   1.497       .  S
N301        C302   1.348       .  A
C302        N303   1.354       .  A
C302        C333   1.481       .  S
N303        C304   1.362       .  A
C304        N305   1.369       .  A
O306        C322   1.274       .  A
O306       Zn312   2.020       .  S
C307        C368   1.484       .  S
C307        O323   1.275       .  A
C307        O320   1.273       .  A
O308        C321   1.279       .  A
O308       Cd315   2.097       .  S
O309        C327   1.276       .  A
O309       Cd318   2.063       .  S
O310        C324   1.272       .  A
O310       Cd314   2.055       .  S
O311        C322   1.273       .  A
O311       Cd314   2.064       .  S
Zn312       O323   2.029       .  S
Zn312       O325   2.013       .  S
Zn312       O317   1.940       .  S
O313        C324   1.276       .  A
O313       Cd318   2.083       .  S
Cd314       O316   2.062       .  S
Cd314       O317   1.989       .  S
Cd315       O319   2.099       .  S
Cd315       O328   2.095       .  S
Cd315       O317   2.010       .  S
O316        C326   1.275       .  A
O317       Cd318   1.996       .  S
Cd318       O320   2.064       .  S
O319        C326   1.279       .  A
C321       C1628   1.500       .  S
C321        O325   1.275       .  A
C322       C1404   1.487       .  S
C324        C340   1.485       .  S
C326       C1516   1.496       .  S
C327       C1292   1.498       .  S
C327        O328   1.279       .  A
C329        C330   1.411       .  A
C329        C334   1.411       .  A
C329        C347   1.450       .  S
C330        C335   1.493       .  S
C330        C331   1.410       .  A
C331        C332   1.408       .  A
C331        C336   1.451       .  S
C332        C333   1.413       .  A
C332        C348   1.452       .  S
C333        C334   1.413       .  A
C334        C337   1.450       .  S
C335        C338   1.408       .  A
C335        C342   1.411       .  A
C336        N353   1.157       .  T
C337        N355   1.157       .  T
C338        C339   1.408       .  A
C338        C343   1.451       .  S
C339        C340   1.417       .  A
C339        C345   1.453       .  S
C340        C341   1.413       .  A
C341        C342   1.412       .  A
C341        C344   1.449       .  S
C342        C346   1.450       .  S
C343        N350   1.157       .  T
C344        N351   1.157       .  T
C345        N349   1.158       .  T
C346        N352   1.157       .  T
C347        N356   1.157       .  T
C348        N354   1.157       .  T
C357        C358   1.409       .  A
C357        C362   1.412       .  A
C357        C375   1.450       .  S
C358        C363   1.497       .  S
C358        C359   1.410       .  A
C359        C360   1.411       .  A
C359        C364   1.452       .  S
C360        C361   1.419       .  A
C360        C376   1.452       .  S
C361        C362   1.416       .  A
C362        C365   1.450       .  S
C363        C366   1.410       .  A
C363        C370   1.411       .  A
C364        N381   1.157       .  T
C365        N383   1.157       .  T
C366        C367   1.409       .  A
C366        C371   1.451       .  S
C367        C368   1.415       .  A
C367        C373   1.452       .  S
C368        C369   1.413       .  A
C369        C370   1.413       .  A
C369        C372   1.450       .  S
C370        C374   1.450       .  S
C371        N378   1.157       .  T
C372        N379   1.157       .  T
C373        N377   1.157       .  T
C374        N380   1.157       .  T
C375        N384   1.157       .  T
C376        N382   1.158       .  T
C385        C386   1.411       .  A
C385        C390   1.411       .  A
C385        C403   1.451       .  S
C386        C391   1.495       .  S
C386        C387   1.410       .  A
C387        C388   1.409   1_455  A
C387        C392   1.451       .  S
C388        C389   1.415       .  A
C388        C404   1.452       .  S
C389        C390   1.415   1_655  A
C390        C393   1.451   1_455  S
C391        C394   1.407       .  A
C391        C398   1.408       .  A
C392        N409   1.157       .  T
C393        N411   1.157       .  T
C394        C395   1.410       .  A
C394        C399   1.453       .  S
C395        C396   1.425       .  A
C395        C401   1.453       .  S
C396        C397   1.423       .  A
C397        C398   1.412       .  A
C397        C400   1.451       .  S
C398        C402   1.452       .  S
C399        N406   1.157       .  T
C400        N407   1.157       .  T
C401        N405   1.158       .  T
C402        N408   1.157       .  T
C403        N412   1.157       .  T
C404        N410   1.157       .  T
C413        C414   1.408       .  A
C413        C418   1.413       .  A
C413        C431   1.451       .  S
C414        C419   1.499       .  S
C414        C415   1.411       .  A
C415        C416   1.412       .  A
C415        C420   1.451       .  S
C416        C417   1.418       .  A
C416        C432   1.451       .  S
C417        C418   1.421       .  A
C418        C421   1.452       .  S
C419        C422   1.409       .  A
C419        C426   1.410       .  A
C420        N437   1.157       .  T
C421        N439   1.158       .  T
C422        C423   1.411   1_455  A
C422        C427   1.451       .  S
C423        C424   1.419       .  A
C423        C429   1.452       .  S
C424        C425   1.418   1_655  A
C425        C426   1.413       .  A
C425        C428   1.451   1_545  S
C426        C430   1.451       .  S
C427        N434   1.157       .  T
C428        N435   1.158       .  T
C429        N433   1.157       .  T
C430        N436   1.157   1_545  T
C431        N440   1.157       .  T
C432        N438   1.157       .  T
C441        C442   1.408       .  A
C441        C446   1.412       .  A
C441        C459   1.451       .  S
C442        C447   1.499       .  S
C442        C443   1.410       .  A
C443        C444   1.413       .  A
C443        C448   1.451       .  S
C444        C445   1.419       .  A
C444        C460   1.451       .  S
C445        C446   1.420       .  A
C446        C449   1.452       .  S
C447        C450   1.410       .  A
C447        C454   1.411       .  A
C448        N465   1.157       .  T
C449        N467   1.157       .  T
C450        C451   1.413       .  A
C450        C455   1.450       .  S
C451        C452   1.417       .  A
C451        C457   1.451       .  S
C452        C453   1.416       .  A
C453        C454   1.412       .  A
C453        C456   1.451       .  S
C454        C458   1.451       .  S
C455        N462   1.157       .  T
C456        N463   1.157       .  T
C457        N461   1.157       .  T
C458        N464   1.157       .  T
C459        N468   1.157       .  T
C460        N466   1.158       .  T
C469        C470   1.411       .  A
C469        C474   1.416       .  A
C469        C487   1.450       .  S
C470        C475   1.503       .  S
C470        C471   1.412       .  A
C471        C472   1.412       .  A
C471        C476   1.451       .  S
C472        C473   1.416       .  A
C472        C488   1.451       .  S
C473        C474   1.418       .  A
C474        C477   1.450       .  S
C475        C478   1.412       .  A
C475        C482   1.413       .  A
C476        N493   1.157       .  T
C477        N495   1.157       .  T
C478        C479   1.410       .  A
C478        C483   1.451       .  S
C479        C480   1.412       .  A
C479        C485   1.451       .  S
C480        C481   1.412       .  A
C481        C482   1.416       .  A
C481        C484   1.449       .  S
C482        C486   1.449       .  S
C483        N490   1.157       .  T
C484        N491   1.157       .  T
C485        N489   1.157       .  T
C486        N492   1.157       .  T
C487        N496   1.157       .  T
C488        N494   1.157       .  T
C497        C498   1.413       .  A
C497        C502   1.416       .  A
C497        C515   1.449       .  S
C498        C503   1.502       .  S
C498        C499   1.411       .  A
C499        C500   1.410       .  A
C499        C504   1.451       .  S
C500        C501   1.414       .  A
C500        C516   1.452       .  S
C501        C502   1.412       .  A
C502        C505   1.449       .  S
C503        C506   1.412       .  A
C503        C510   1.411       .  A
C504        N521   1.157       .  T
C505        N523   1.157       .  T
C506        C507   1.412       .  A
C506        C511   1.451       .  S
C507        C508   1.414       .  A
C507        C513   1.451       .  S
C508        C509   1.416       .  A
C509        C510   1.415       .  A
C509        C512   1.451       .  S
C510        C514   1.450       .  S
C511        N518   1.157       .  T
C512        N519   1.157       .  T
C513        N517   1.157       .  T
C514        N520   1.157       .  T
C515        N524   1.157       .  T
C516        N522   1.157       .  T
C525        C526   1.412       .  A
C525        C530   1.415       .  A
C525        C543   1.449       .  S
C526        C531   1.500       .  S
C526        C527   1.411       .  A
C527        C528   1.409       .  A
C527        C532   1.451       .  S
C528        C529   1.411       .  A
C528        C544   1.451       .  S
C529        C530   1.411       .  A
C530        C533   1.449       .  S
C531        C534   1.412       .  A
C531        C538   1.409       .  A
C532        N549   1.157       .  T
C533        N551   1.157       .  T
C534        C535   1.412       .  A
C534        C539   1.452       .  S
C535        C536   1.416       .  A
C535        C541   1.451       .  S
C536        C537   1.420       .  A
C537        C538   1.415       .  A
C537        C540   1.451       .  S
C538        C542   1.450       .  S
C539        N546   1.157       .  T
C540        N547   1.157       .  T
C541        N545   1.157       .  T
C542        N548   1.157       .  T
C543        N552   1.157       .  T
C544        N550   1.157       .  T
C553        C554   1.414       .  A
C553        C558   1.415       .  A
C553        C571   1.449       .  S
C554        C559   1.505       .  S
C554        C555   1.412       .  A
C555        C556   1.411       .  A
C555        C560   1.451       .  S
C556        C557   1.416       .  A
C556        C572   1.452       .  S
C557        C558   1.413       .  A
C558        C561   1.450   1_554  S
C559        C562   1.411       .  A
C559        C566   1.411       .  A
C560        N577   1.157       .  T
C561        N579   1.157       .  T
C562        C563   1.417       .  A
C562        C567   1.450       .  S
C563        C564   1.420       .  A
C563        C569   1.449       .  S
C564        C565   1.419       .  A
C565        C566   1.411       .  A
C565        C568   1.450       .  S
C566        C570   1.452       .  S
C567        N574   1.157       .  T
C568        N575   1.157       .  T
C569        N573   1.157       .  T
C570        N576   1.157       .  T
C571        N580   1.157       .  T
C572        N578   1.157       .  T
C581        C582   1.413       .  A
C581        C586   1.416       .  A
C581        C599   1.450   1_565  S
C582        C587   1.501   1_565  S
C582        C583   1.410       .  A
C583        C584   1.409       .  A
C583        C588   1.452       .  S
C584        C585   1.418       .  A
C584        C600   1.452       .  S
C585        C586   1.416       .  A
C586        C589   1.450   1_554  S
C587        C590   1.412       .  A
C587        C594   1.413       .  A
C588        N605   1.157       .  T
C589        N607   1.157       .  T
C590        C591   1.410       .  A
C590        C595   1.451       .  S
C591        C592   1.413       .  A
C591        C597   1.451       .  S
C592        C593   1.412       .  A
C593        C594   1.414       .  A
C593        C596   1.450       .  S
C594        C598   1.450       .  S
C595        N602   1.157       .  T
C596        N603   1.157       .  T
C597        N601   1.157       .  T
C598        N604   1.157   1_545  T
C599        N608   1.157       .  T
C600        N606   1.157       .  T
C609        C610   1.412       .  A
C609        C614   1.410       .  A
C609        C627   1.451       .  S
C610        C615   1.501   1_545  S
C610        C611   1.414       .  A
C611        C612   1.414       .  A
C611        C616   1.449       .  S
C612        C613   1.411       .  A
C612        C628   1.450       .  S
C613        C614   1.414       .  A
C614        C617   1.452       .  S
C615        C618   1.411       .  A
C615        C622   1.411       .  A
C616        N633   1.157   1_545  T
C617        N635   1.157       .  T
C618        C619   1.414       .  A
C618        C623   1.450   1_565  S
C619        C620   1.417       .  A
C619        C625   1.451       .  S
C620        C621   1.417       .  A
C621        C622   1.411       .  A
C621        C624   1.451       .  S
C622        C626   1.452       .  S
C623        N630   1.157       .  T
C624        N631   1.157       .  T
C625        N629   1.157       .  T
C626        N632   1.157       .  T
C627        N636   1.157       .  T
C628        N634   1.157       .  T
C637        C638   1.413       .  A
C637        C642   1.414       .  A
C637        C655   1.449       .  S
C638        C643   1.505       .  S
C638        C639   1.413       .  A
C639        C640   1.412       .  A
C639        C644   1.450       .  S
C640        C641   1.412       .  A
C640        C656   1.451       .  S
C641        C642   1.411       .  A
C642        C645   1.449       .  S
C643        C646   1.413       .  A
C643        C650   1.411       .  A
C644        N661   1.157       .  T
C645        N663   1.157       .  T
C646        C647   1.411       .  A
C646        C651   1.452       .  S
C647        C648   1.415       .  A
C647        C653   1.451       .  S
C648        C649   1.419       .  A
C649        C650   1.417       .  A
C649        C652   1.451       .  S
C650        C654   1.450       .  S
C651        N658   1.157       .  T
C652        N659   1.158       .  T
C653        N657   1.157       .  T
C654        N660   1.157       .  T
C655        N664   1.157       .  T
C656        N662   1.157       .  T
C665        C666   1.409       .  A
C665        C670   1.411       .  A
C665        C683   1.451       .  S
C666        C671   1.494       .  S
C666        C667   1.408       .  A
C667        C668   1.410       .  A
C667        C672   1.451       .  S
C668        C669   1.420       .  A
C668        C684   1.452       .  S
C669        C670   1.419       .  A
C670        C673   1.452       .  S
C671        C674   1.411       .  A
C671        C678   1.410       .  A
C672        N689   1.157       .  T
C673        N691   1.158       .  T
C674        C675   1.409       .  A
C674        C679   1.451       .  S
C675        C676   1.412       .  A
C675        C681   1.450       .  S
C676        C677   1.414       .  A
C677        C678   1.411       .  A
C677        C680   1.451       .  S
C678        C682   1.450       .  S
C679        N686   1.157       .  T
C680        N687   1.157       .  T
C681        N685   1.157       .  T
C682        N688   1.157       .  T
C683        N692   1.157       .  T
C684        N690   1.158       .  T
C693        C694   1.411       .  A
C693        C698   1.410       .  A
C693        C711   1.453       .  S
C694        C699   1.501       .  S
C694        C695   1.411       .  A
C695        C696   1.415       .  A
C695        C700   1.450       .  S
C696        C697   1.418       .  A
C696        C712   1.450       .  S
C697        C698   1.419       .  A
C698        C701   1.452       .  S
C699        C702   1.413       .  A
C699        C706   1.413       .  A
C700        N717   1.157       .  T
C701        N719   1.158       .  T
C702        C703   1.412       .  A
C702        C707   1.450       .  S
C703        C704   1.411       .  A
C703        C709   1.450       .  S
C704        C705   1.411       .  A
C705        C706   1.411       .  A
C705        C708   1.451       .  S
C706        C710   1.450       .  S
C707        N714   1.157       .  T
C708        N715   1.157       .  T
C709        N713   1.157       .  T
C710        N716   1.157       .  T
C711        N720   1.157       .  T
C712        N718   1.157       .  T
C721        C722   1.412       .  A
C721        C726   1.415       .  A
C721        C739   1.449       .  S
C722        C727   1.498       .  S
C722        C723   1.411       .  A
C723        C724   1.408       .  A
C723        C728   1.452       .  S
C724        C725   1.414       .  A
C724        C740   1.452       .  S
C725        C726   1.412       .  A
C726        C729   1.449       .  S
C727        C730   1.411       .  A
C727        C734   1.411       .  A
C728        N745   1.157       .  T
C729        N747   1.157   1_545  T
C730        C731   1.410       .  A
C730        C735   1.451       .  S
C731        C732   1.414       .  A
C731        C737   1.451       .  S
C732        C733   1.416       .  A
C733        C734   1.413       .  A
C733        C736   1.450       .  S
C734        C738   1.450       .  S
C735        N742   1.157       .  T
C736        N743   1.157       .  T
C737        N741   1.157       .  T
C738        N744   1.157       .  T
C739        N748   1.157       .  T
C740        N746   1.157       .  T
C749        C750   1.413       .  A
C749        C754   1.417       .  A
C749        C767   1.450       .  S
C750        C755   1.504       .  S
C750        C751   1.411       .  A
C751        C752   1.409       .  A
C751        C756   1.453       .  S
C752        C753   1.422       .  A
C752        C768   1.454       .  S
C753        C754   1.419       .  A
C754        C757   1.450       .  S
C755        C758   1.415       .  A
C755        C762   1.412       .  A
C756        N773   1.157       .  T
C757        N775   1.157       .  T
C758        C759   1.414       .  A
C758        C763   1.450       .  S
C759        C760   1.412       .  A
C759        C765   1.450       .  S
C760        C761   1.412       .  A
C761        C762   1.410       .  A
C761        C764   1.449       .  S
C762        C766   1.451       .  S
C763        N770   1.157       .  T
C764        N771   1.157       .  T
C765        N769   1.157       .  T
C766        N772   1.157       .  T
C767        N776   1.157       .  T
C768        N774   1.158       .  T
C777        C778   1.412       .  A
C777        C782   1.414       .  A
C777        C795   1.451   1_554  S
C778        C783   1.505   1_554  S
C778        C779   1.411       .  A
C779        C780   1.415       .  A
C779        C784   1.450       .  S
C780        C781   1.417       .  A
C780        C796   1.451       .  S
C781        C782   1.415       .  A
C782        C785   1.450       .  S
C783        C786   1.412       .  A
C783        C790   1.410       .  A
C784        N801   1.157       .  T
C785        N803   1.157       .  T
C786        C787   1.415       .  A
C786        C791   1.450   1_556  S
C787        C788   1.418       .  A
C787        C793   1.451       .  S
C788        C789   1.420       .  A
C789        C790   1.414       .  A
C789        C792   1.451       .  S
C790        C794   1.450       .  S
C791        N798   1.157       .  T
C792        N799   1.157       .  T
C793        N797   1.157       .  T
C794        N800   1.157       .  T
C795        N804   1.157       .  T
C796        N802   1.158       .  T
C805        C806   1.411       .  A
C805        C810   1.416       .  A
C805        C823   1.450       .  S
C806        C811   1.501       .  S
C806        C807   1.411       .  A
C807        C808   1.411       .  A
C807        C812   1.451       .  S
C808        C809   1.415       .  A
C808        C824   1.451       .  S
C809        C810   1.416       .  A
C810        C813   1.450       .  S
C811        C814   1.411       .  A
C811        C818   1.413       .  A
C812        N829   1.157       .  T
C813        N831   1.157       .  T
C814        C815   1.409       .  A
C814        C819   1.451       .  S
C815        C816   1.413       .  A
C815        C821   1.452       .  S
C816        C817   1.412       .  A
C817        C818   1.417       .  A
C817        C820   1.449       .  S
C818        C822   1.449       .  S
C819        N826   1.157       .  T
C820        N827   1.157       .  T
C821        N825   1.157       .  T
C822        N828   1.157       .  T
C823        N832   1.157       .  T
C824        N830   1.157       .  T
C833        C834   1.409       .  A
C833        C838   1.410       .  A
C833        C851   1.451       .  S
C834        C839   1.495   1_556  S
C834        C835   1.410       .  A
C835        C836   1.410       .  A
C835        C840   1.451   1_556  S
C836        C837   1.417       .  A
C836        C852   1.451       .  S
C837        C838   1.418       .  A
C838        C841   1.452       .  S
C839        C842   1.409       .  A
C839        C846   1.409       .  A
C840        N857   1.157       .  T
C841        N859   1.157       .  T
C842        C843   1.412       .  A
C842        C847   1.450       .  S
C843        C844   1.419       .  A
C843        C849   1.451       .  S
C844        C845   1.420       .  A
C845        C846   1.408       .  A
C845        C848   1.452       .  S
C846        C850   1.453   1_554  S
C847        N854   1.157       .  T
C848        N855   1.158       .  T
C849        N853   1.158       .  T
C850        N856   1.157       .  T
C851        N860   1.157       .  T
C852        N858   1.157       .  T
C861        C862   1.411       .  A
C861        C866   1.412       .  A
C861        C879   1.451       .  S
C862        C867   1.498       .  S
C862        C863   1.410       .  A
C863        C864   1.410       .  A
C863        C868   1.451       .  S
C864        C865   1.418       .  A
C864        C880   1.452       .  S
C865        C866   1.416       .  A
C866        C869   1.450       .  S
C867        C870   1.411       .  A
C867        C874   1.409       .  A
C868        N885   1.157       .  T
C869        N887   1.157       .  T
C870        C871   1.411       .  A
C870        C875   1.451       .  S
C871        C872   1.415       .  A
C871        C877   1.450       .  S
C872        C873   1.415       .  A
C873        C874   1.411       .  A
C873        C876   1.448       .  S
C874        C878   1.451       .  S
C875        N882   1.157       .  T
C876        N883   1.156       .  T
C877        N881   1.157       .  T
C878        N884   1.157       .  T
C879        N888   1.157       .  T
C880        N886   1.158       .  T
C889        C890   1.411       .  A
C889        C894   1.410       .  A
C889        C907   1.451       .  S
C890        C895   1.501       .  S
C890        C891   1.412       .  A
C891        C892   1.415       .  A
C891        C896   1.449       .  S
C892        C893   1.413       .  A
C892        C908   1.449       .  S
C893        C894   1.414       .  A
C894        C897   1.451       .  S
C895        C898   1.411       .  A
C895        C902   1.412       .  A
C896        N913   1.157       .  T
C897        N915   1.157       .  T
C898        C899   1.415       .  A
C898        C903   1.450       .  S
C899        C900   1.418       .  A
C899        C905   1.451       .  S
C900        C901   1.415       .  A
C901        C902   1.410       .  A
C901        C904   1.452       .  S
C902        C906   1.452       .  S
C903        N910   1.157       .  T
C904        N911   1.157       .  T
C905        N909   1.158       .  T
C906        N912   1.157       .  T
C907        N916   1.157       .  T
C908        N914   1.157       .  T
C917        C918   1.413       .  A
C917        C922   1.412       .  A
C917        C935   1.450       .  S
C918        C923   1.502       .  S
C918        C919   1.413       .  A
C919        C920   1.412       .  A
C919        C924   1.450       .  S
C920        C921   1.411       .  A
C920        C936   1.451       .  S
C921        C922   1.410       .  A
C922        C925   1.450       .  S
C923        C926   1.411       .  A
C923        C930   1.410       .  A
C924        N941   1.157       .  T
C925        N943   1.157       .  T
C926        C927   1.411       .  A
C926        C931   1.452       .  S
C927        C928   1.419       .  A
C927        C933   1.452       .  S
C928        C929   1.421       .  A
C929        C930   1.416       .  A
C929        C932   1.450       .  S
C930        C934   1.450       .  S
C931        N938   1.157       .  T
C932        N939   1.157       .  T
C933        N937   1.157       .  T
C934        N940   1.157       .  T
C935        N944   1.157       .  T
C936        N942   1.157       .  T
C945        C946   1.411       .  A
C945        C950   1.415       .  A
C945        C963   1.450       .  S
C946        C951   1.497       .  S
C946        C947   1.408       .  A
C947        C948   1.409   1_655  A
C947        C952   1.452       .  S
C948        C949   1.419       .  A
C948        C964   1.452       .  S
C949        C950   1.416   1_455  A
C950        C953   1.450       .  S
C951        C954   1.410       .  A
C951        C958   1.411       .  A
C952        N969   1.157       .  T
C953        N971   1.157       .  T
C954        C955   1.409       .  A
C954        C959   1.452       .  S
C955        C956   1.417       .  A
C955        C961   1.452       .  S
C956        C957   1.415       .  A
C957        C958   1.413       .  A
C957        C960   1.450       .  S
C958        C962   1.450       .  S
C959        N966   1.157       .  T
C960        N967   1.157       .  T
C961        N965   1.158       .  T
C962        N968   1.157       .  T
C963        N972   1.157       .  T
C964        N970   1.157       .  T
C973        C974   1.413       .  A
C973        C978   1.417       .  A
C973        C991   1.450       .  S
C974        C979   1.506       .  S
C974        C975   1.413       .  A
C975        C976   1.412       .  A
C975        C980   1.451       .  S
C976        C977   1.416       .  A
C976        C992   1.452       .  S
C977        C978   1.418       .  A
C978        C981   1.450       .  S
C979        C982   1.414       .  A
C979        C986   1.415       .  A
C980        N997   1.157       .  T
C981        N999   1.157       .  T
C982        C983   1.413       .  A
C982        C987   1.451       .  S
C983        C984   1.412       .  A
C983        C989   1.451       .  S
C984        C985   1.411       .  A
C985        C986   1.414       .  A
C985        C988   1.450       .  S
C986        C990   1.450       .  S
C987        N994   1.157       .  T
C988        N995   1.157       .  T
C989        N993   1.157       .  T
C990        N996   1.157       .  T
C991       N1000   1.157       .  T
C992        N998   1.157       .  T
C1001      C1002   1.409       .  A
C1001      C1006   1.407       .  A
C1001      C1019   1.451       .  S
C1002      C1007   1.494       .  S
C1002      C1003   1.411       .  A
C1003      C1004   1.413       .  A
C1003      C1008   1.450       .  S
C1004      C1005   1.414       .  A
C1004      C1020   1.450       .  S
C1005      C1006   1.415       .  A
C1006      C1009   1.451       .  S
C1007      C1010   1.410       .  A
C1007      C1014   1.407       .  A
C1008      N1025   1.157       .  T
C1009      N1027   1.157       .  T
C1010      C1011   1.414       .  A
C1010      C1015   1.450       .  S
C1011      C1012   1.417   1_655  A
C1011      C1017   1.450       .  S
C1012      C1013   1.418   1_455  A
C1013      C1014   1.407       .  A
C1013      C1016   1.451   1_655  S
C1014      C1018   1.452       .  S
C1015      N1022   1.157       .  T
C1016      N1023   1.157       .  T
C1017      N1021   1.157       .  T
C1018      N1024   1.157       .  T
C1019      N1028   1.157       .  T
C1020      N1026   1.157       .  T
C1029      C1030   1.410       .  A
C1029      C1034   1.413       .  A
C1029      C1047   1.452       .  S
C1030      C1035   1.500       .  S
C1030      C1031   1.409       .  A
C1031      C1032   1.414       .  A
C1031      C1036   1.450       .  S
C1032      C1033   1.420       .  A
C1032      C1048   1.452       .  S
C1033      C1034   1.420       .  A
C1034      C1037   1.451       .  S
C1035      C1038   1.411       .  A
C1035      C1042   1.410       .  A
C1036      N1053   1.157       .  T
C1037      N1055   1.157       .  T
C1038      C1039   1.412       .  A
C1038      C1043   1.451       .  S
C1039      C1040   1.416       .  A
C1039      C1045   1.451       .  S
C1040      C1041   1.417       .  A
C1041      C1042   1.413       .  A
C1041      C1044   1.451       .  S
C1042      C1046   1.450       .  S
C1043      N1050   1.157       .  T
C1044      N1051   1.157       .  T
C1045      N1049   1.157       .  T
C1046      N1052   1.157       .  T
C1047      N1056   1.157       .  T
C1048      N1054   1.158       .  T
C1057      C1058   1.411       .  A
C1057      C1062   1.417       .  A
C1057      C1075   1.450       .  S
C1058      C1063   1.508       .  S
C1058      C1059   1.414       .  A
C1059      C1060   1.414       .  A
C1059      C1064   1.452       .  S
C1060      C1061   1.419       .  A
C1060      C1076   1.452       .  S
C1061      C1062   1.421       .  A
C1062      C1065   1.451       .  S
C1063      C1066   1.414       .  A
C1063      C1070   1.414       .  A
C1064      N1081   1.157       .  T
C1065      N1083   1.157       .  T
C1066      C1067   1.414       .  A
C1066      C1071   1.450       .  S
C1067      C1068   1.412       .  A
C1067      C1073   1.450       .  S
C1068      C1069   1.411       .  A
C1069      C1070   1.414       .  A
C1069      C1072   1.449       .  S
C1070      C1074   1.450       .  S
C1071      N1078   1.157       .  T
C1072      N1079   1.157       .  T
C1073      N1077   1.157       .  T
C1074      N1080   1.157       .  T
C1075      N1084   1.157       .  T
C1076      N1082   1.157       .  T
C1085      C1086   1.413       .  A
C1085      C1090   1.417       .  A
C1085      C1103   1.449       .  S
C1086      C1091   1.505       .  S
C1086      C1087   1.414       .  A
C1087      C1088   1.412       .  A
C1087      C1092   1.451       .  S
C1088      C1089   1.411       .  A
C1088      C1104   1.450       .  S
C1089      C1090   1.412       .  A
C1090      C1093   1.449       .  S
C1091      C1094   1.412       .  A
C1091      C1098   1.411       .  A
C1092      N1109   1.157       .  T
C1093      N1111   1.157       .  T
C1094      C1095   1.413       .  A
C1094      C1099   1.451       .  S
C1095      C1096   1.418       .  A
C1095      C1101   1.452       .  S
C1096      C1097   1.419       .  A
C1097      C1098   1.417       .  A
C1097      C1100   1.450       .  S
C1098      C1102   1.449       .  S
C1099      N1106   1.157       .  T
C1100      N1107   1.157       .  T
C1101      N1105   1.157       .  T
C1102      N1108   1.157       .  T
C1103      N1112   1.157       .  T
C1104      N1110   1.157       .  T
C1113      C1114   1.409       .  A
C1113      C1118   1.411       .  A
C1113      C1131   1.451       .  S
C1114      C1119   1.498       .  S
C1114      C1115   1.412       .  A
C1115      C1116   1.413       .  A
C1115      C1120   1.450       .  S
C1116      C1117   1.414       .  A
C1116      C1132   1.450       .  S
C1117      C1118   1.418       .  A
C1118      C1121   1.452       .  S
C1119      C1122   1.409       .  A
C1119      C1126   1.409       .  A
C1120      N1137   1.157       .  T
C1121      N1139   1.158       .  T
C1122      C1123   1.413       .  A
C1122      C1127   1.450       .  S
C1123      C1124   1.417       .  A
C1123      C1129   1.449       .  S
C1124      C1125   1.419       .  A
C1125      C1126   1.412       .  A
C1125      C1128   1.451       .  S
C1126      C1130   1.451       .  S
C1127      N1134   1.157       .  T
C1128      N1135   1.157       .  T
C1129      N1133   1.157       .  T
C1130      N1136   1.157       .  T
C1131      N1140   1.157       .  T
C1132      N1138   1.157       .  T
C1141      C1142   1.411       .  A
C1141      C1146   1.412       .  A
C1141      C1159   1.450       .  S
C1142      C1147   1.500       .  S
C1142      C1143   1.412       .  A
C1143      C1144   1.412       .  A
C1143      C1148   1.450       .  S
C1144      C1145   1.412       .  A
C1144      C1160   1.450       .  S
C1145      C1146   1.413       .  A
C1146      C1149   1.451       .  S
C1147      C1150   1.406       .  A
C1147      C1154   1.409       .  A
C1148      N1165   1.157       .  T
C1149      N1167   1.157       .  T
C1150      C1151   1.412       .  A
C1150      C1155   1.452       .  S
C1151      C1152   1.427       .  A
C1151      C1157   1.452       .  S
C1152      C1153   1.425       .  A
C1153      C1154   1.415       .  A
C1153      C1156   1.451       .  S
C1154      C1158   1.452       .  S
C1155      N1162   1.157       .  T
C1156      N1163   1.158       .  T
C1157      N1161   1.158       .  T
C1158      N1164   1.157       .  T
C1159      N1168   1.157       .  T
C1160      N1166   1.157       .  T
C1169      C1170   1.414       .  A
C1169      C1174   1.416       .  A
C1169      C1187   1.450       .  S
C1170      C1175   1.504       .  S
C1170      C1171   1.412       .  A
C1171      C1172   1.410       .  A
C1171      C1176   1.452       .  S
C1172      C1173   1.417       .  A
C1172      C1188   1.452       .  S
C1173      C1174   1.415       .  A
C1174      C1177   1.450       .  S
C1175      C1178   1.415       .  A
C1175      C1182   1.410       .  A
C1176      N1193   1.157       .  T
C1177      N1195   1.157       .  T
C1178      C1179   1.418       .  A
C1178      C1183   1.449       .  S
C1179      C1180   1.415       .  A
C1179      C1185   1.449       .  S
C1180      C1181   1.420       .  A
C1181      C1182   1.408       .  A
C1181      C1184   1.453       .  S
C1182      C1186   1.453       .  S
C1183      N1190   1.157       .  T
C1184      N1191   1.157       .  T
C1185      N1189   1.157       .  T
C1186      N1192   1.157       .  T
C1187      N1196   1.157       .  T
C1188      N1194   1.157       .  T
C1197      C1198   1.412       .  A
C1197      C1202   1.417       .  A
C1197      C1215   1.449       .  S
C1198      C1203   1.507       .  S
C1198      C1199   1.412       .  A
C1199      C1200   1.414       .  A
C1199      C1204   1.450       .  S
C1200      C1201   1.415       .  A
C1200      C1216   1.451       .  S
C1201      C1202   1.417       .  A
C1202      C1205   1.450       .  S
C1203      C1206   1.412       .  A
C1203      C1210   1.413       .  A
C1204      N1221   1.157       .  T
C1205      N1223   1.157       .  T
C1206      C1207   1.412       .  A
C1206      C1211   1.451       .  S
C1207      C1208   1.415       .  A
C1207      C1213   1.452       .  S
C1208      C1209   1.414       .  A
C1209      C1210   1.419       .  A
C1209      C1212   1.449       .  S
C1210      C1214   1.449       .  S
C1211      N1218   1.157       .  T
C1212      N1219   1.157       .  T
C1213      N1217   1.157       .  T
C1214      N1220   1.157       .  T
C1215      N1224   1.157       .  T
C1216      N1222   1.157       .  T
C1225      C1226   1.409       .  A
C1225      C1230   1.409       .  A
C1225      C1243   1.452       .  S
C1226      C1231   1.490       .  S
C1226      C1227   1.408       .  A
C1227      C1228   1.409   1_554  A
C1227      C1232   1.451       .  S
C1228      C1229   1.417   1_556  A
C1228      C1244   1.449       .  S
C1229      C1230   1.417       .  A
C1230      C1233   1.452       .  S
C1231      C1234   1.411       .  A
C1231      C1238   1.409       .  A
C1232      N1249   1.157   1_554  T
C1233      N1251   1.157       .  T
C1234      C1235   1.409       .  A
C1234      C1239   1.450       .  S
C1235      C1236   1.412       .  A
C1235      C1241   1.451       .  S
C1236      C1237   1.414       .  A
C1237      C1238   1.408       .  A
C1237      C1240   1.452       .  S
C1238      C1242   1.451       .  S
C1239      N1246   1.157       .  T
C1240      N1247   1.157       .  T
C1241      N1245   1.157       .  T
C1242      N1248   1.157       .  T
C1243      N1252   1.157       .  T
C1244      N1250   1.156       .  T
C1253      C1254   1.410       .  A
C1253      C1258   1.409       .  A
C1253      C1271   1.451       .  S
C1254      C1259   1.504       .  S
C1254      C1255   1.414       .  A
C1255      C1256   1.416       .  A
C1255      C1260   1.449       .  S
C1256      C1257   1.413       .  A
C1256      C1272   1.449   1_554  S
C1257      C1258   1.417       .  A
C1258      C1261   1.453       .  S
C1259      C1262   1.411       .  A
C1259      C1266   1.412       .  A
C1260      N1277   1.157       .  T
C1261      N1279   1.157       .  T
C1262      C1263   1.410       .  A
C1262      C1267   1.452       .  S
C1263      C1264   1.419       .  A
C1263      C1269   1.453       .  S
C1264      C1265   1.417       .  A
C1265      C1266   1.417       .  A
C1265      C1268   1.449       .  S
C1266      C1270   1.450       .  S
C1267      N1274   1.157       .  T
C1268      N1275   1.157       .  T
C1269      N1273   1.158       .  T
C1270      N1276   1.157       .  T
C1271      N1280   1.157       .  T
C1272      N1278   1.157       .  T
C1281      C1282   1.412       .  A
C1281      C1286   1.410       .  A
C1281      C1299   1.451       .  S
C1282      C1287   1.497       .  S
C1282      C1283   1.412       .  A
C1283      C1284   1.411       .  A
C1283      C1288   1.449       .  S
C1284      C1285   1.410       .  A
C1284      C1300   1.450       .  S
C1285      C1286   1.411       .  A
C1286      C1289   1.451       .  S
C1287      C1290   1.409       .  A
C1287      C1294   1.410       .  A
C1288      N1305   1.157       .  T
C1289      N1307   1.157       .  T
C1290      C1291   1.414       .  A
C1290      C1295   1.450       .  S
C1291      C1292   1.420       .  A
C1291      C1297   1.450       .  S
C1292      C1293   1.419       .  A
C1293      C1294   1.409       .  A
C1293      C1296   1.451       .  S
C1294      C1298   1.452       .  S
C1295      N1302   1.157       .  T
C1296      N1303   1.157       .  T
C1297      N1301   1.157       .  T
C1298      N1304   1.157       .  T
C1299      N1308   1.157       .  T
C1300      N1306   1.157       .  T
C1309      C1310   1.413       .  A
C1309      C1314   1.410       .  A
C1309      C1327   1.451       .  S
C1310      C1315   1.498       .  S
C1310      C1311   1.412       .  A
C1311      C1312   1.411       .  A
C1311      C1316   1.451       .  S
C1312      C1313   1.413       .  A
C1312      C1328   1.451       .  S
C1313      C1314   1.412       .  A
C1314      C1317   1.450       .  S
C1315      C1318   1.413       .  A
C1315      C1322   1.412       .  A
C1316      N1333   1.157       .  T
C1317      N1335   1.157       .  T
C1318      C1319   1.409       .  A
C1318      C1323   1.452       .  S
C1319      C1320   1.414       .  A
C1319      C1325   1.452       .  S
C1320      C1321   1.415       .  A
C1321      C1322   1.411       .  A
C1321      C1324   1.451       .  S
C1322      C1326   1.450       .  S
C1323      N1330   1.157       .  T
C1324      N1331   1.157       .  T
C1325      N1329   1.157       .  T
C1326      N1332   1.157       .  T
C1327      N1336   1.157       .  T
C1328      N1334   1.157       .  T
C1337      C1338   1.413       .  A
C1337      C1342   1.412       .  A
C1337      C1355   1.449       .  S
C1338      C1343   1.499       .  S
C1338      C1339   1.413       .  A
C1339      C1340   1.410       .  A
C1339      C1344   1.451       .  S
C1340      C1341   1.410       .  A
C1340      C1356   1.450       .  S
C1341      C1342   1.411       .  A
C1342      C1345   1.450       .  S
C1343      C1346   1.411       .  A
C1343      C1350   1.410       .  A
C1344      N1361   1.157       .  T
C1345      N1363   1.157       .  T
C1346      C1347   1.409       .  A
C1346      C1351   1.452       .  S
C1347      C1348   1.419       .  A
C1347      C1353   1.453       .  S
C1348      C1349   1.418       .  A
C1349      C1350   1.415       .  A
C1349      C1352   1.450       .  S
C1350      C1354   1.450       .  S
C1351      N1358   1.157       .  T
C1352      N1359   1.157       .  T
C1353      N1357   1.157       .  T
C1354      N1360   1.157       .  T
C1355      N1364   1.157       .  T
C1356      N1362   1.157       .  T
C1365      C1366   1.411       .  A
C1365      C1370   1.413       .  A
C1365      C1383   1.451       .  S
C1366      C1371   1.498       .  S
C1366      C1367   1.409       .  A
C1367      C1368   1.412       .  A
C1367      C1372   1.451       .  S
C1368      C1369   1.420       .  A
C1368      C1384   1.452       .  S
C1369      C1370   1.415       .  A
C1370      C1373   1.449       .  S
C1371      C1374   1.408       .  A
C1371      C1378   1.410       .  A
C1372      N1389   1.157       .  T
C1373      N1391   1.157       .  T
C1374      C1375   1.410       .  A
C1374      C1379   1.451       .  S
C1375      C1376   1.418       .  A
C1375      C1381   1.450       .  S
C1376      C1377   1.418       .  A
C1377      C1378   1.414       .  A
C1377      C1380   1.451       .  S
C1378      C1382   1.450       .  S
C1379      N1386   1.157       .  T
C1380      N1387   1.157       .  T
C1381      N1385   1.157       .  T
C1382      N1388   1.157       .  T
C1383      N1392   1.157       .  T
C1384      N1390   1.158       .  T
C1393      C1394   1.408       .  A
C1393      C1398   1.411       .  A
C1393      C1411   1.452       .  S
C1394      C1399   1.495       .  S
C1394      C1395   1.409       .  A
C1395      C1396   1.412       .  A
C1395      C1400   1.451       .  S
C1396      C1397   1.419       .  A
C1396      C1412   1.451       .  S
C1397      C1398   1.419       .  A
C1398      C1401   1.451       .  S
C1399      C1402   1.410       .  A
C1399      C1406   1.410       .  A
C1400      N1417   1.157       .  T
C1401      N1419   1.157       .  T
C1402      C1403   1.411       .  A
C1402      C1407   1.450       .  S
C1403      C1404   1.414       .  A
C1403      C1409   1.450       .  S
C1404      C1405   1.417       .  A
C1405      C1406   1.410       .  A
C1405      C1408   1.452       .  S
C1406      C1410   1.451       .  S
C1407      N1414   1.157       .  T
C1408      N1415   1.158       .  T
C1409      N1413   1.157       .  T
C1410      N1416   1.157       .  T
C1411      N1420   1.157       .  T
C1412      N1418   1.157       .  T
C1421      C1422   1.413       .  A
C1421      C1426   1.412       .  A
C1421      C1439   1.450       .  S
C1422      C1427   1.501       .  S
C1422      C1423   1.413       .  A
C1423      C1424   1.411       .  A
C1423      C1428   1.451       .  S
C1424      C1425   1.411       .  A
C1424      C1440   1.450       .  S
C1425      C1426   1.411       .  A
C1426      C1429   1.450       .  S
C1427      C1430   1.412       .  A
C1427      C1434   1.411       .  A
C1428      N1445   1.157       .  T
C1429      N1447   1.157       .  T
C1430      C1431   1.408       .  A
C1430      C1435   1.453       .  S
C1431      C1432   1.418       .  A
C1431      C1437   1.452       .  S
C1432      C1433   1.418       .  A
C1433      C1434   1.416       .  A
C1433      C1436   1.450       .  S
C1434      C1438   1.450       .  S
C1435      N1442   1.157       .  T
C1436      N1443   1.157       .  T
C1437      N1441   1.157       .  T
C1438      N1444   1.157       .  T
C1439      N1448   1.157       .  T
C1440      N1446   1.157       .  T
C1449      C1450   1.408       .  A
C1449      C1454   1.408       .  A
C1449      C1467   1.451       .  S
C1450      C1455   1.492       .  S
C1450      C1451   1.411       .  A
C1451      C1452   1.411       .  A
C1451      C1456   1.451       .  S
C1452      C1453   1.414       .  A
C1452      C1468   1.451       .  S
C1453      C1454   1.416       .  A
C1454      C1457   1.452       .  S
C1455      C1458   1.408       .  A
C1455      C1462   1.409       .  A
C1456      N1473   1.157       .  T
C1457      N1475   1.157       .  T
C1458      C1459   1.409       .  A
C1458      C1463   1.451       .  S
C1459      C1460   1.418       .  A
C1459      C1465   1.452       .  S
C1460      C1461   1.418       .  A
C1461      C1462   1.410       .  A
C1461      C1464   1.452       .  S
C1462      C1466   1.451       .  S
C1463      N1470   1.157       .  T
C1464      N1471   1.158       .  T
C1465      N1469   1.158       .  T
C1466      N1472   1.157       .  T
C1467      N1476   1.157       .  T
C1468      N1474   1.157       .  T
C1477      C1478   1.408       .  A
C1477      C1482   1.414       .  A
C1477      C1495   1.450       .  S
C1478      C1483   1.501       .  S
C1478      C1479   1.411       .  A
C1479      C1480   1.413       .  A
C1479      C1484   1.452       .  S
C1480      C1481   1.418       .  A
C1480      C1496   1.450       .  S
C1481      C1482   1.422       .  A
C1482      C1485   1.451       .  S
C1483      C1486   1.411       .  A
C1483      C1490   1.412       .  A
C1484      N1501   1.157       .  T
C1485      N1503   1.157       .  T
C1486      C1487   1.410       .  A
C1486      C1491   1.451       .  S
C1487      C1488   1.413       .  A
C1487      C1493   1.451       .  S
C1488      C1489   1.412       .  A
C1489      C1490   1.415       .  A
C1489      C1492   1.450       .  S
C1490      C1494   1.449       .  S
C1491      N1498   1.157       .  T
C1492      N1499   1.157       .  T
C1493      N1497   1.157       .  T
C1494      N1500   1.157       .  T
C1495      N1504   1.157       .  T
C1496      N1502   1.157       .  T
C1505      C1506   1.412       .  A
C1505      C1510   1.416       .  A
C1505      C1523   1.449       .  S
C1506      C1511   1.498       .  S
C1506      C1507   1.411       .  A
C1507      C1508   1.408       .  A
C1507      C1512   1.452       .  S
C1508      C1509   1.414       .  A
C1508      C1524   1.452       .  S
C1509      C1510   1.412       .  A
C1510      C1513   1.449       .  S
C1511      C1514   1.410       .  A
C1511      C1518   1.409       .  A
C1512      N1529   1.157       .  T
C1513      N1531   1.157       .  T
C1514      C1515   1.410       .  A
C1514      C1519   1.452       .  S
C1515      C1516   1.417       .  A
C1515      C1521   1.450       .  S
C1516      C1517   1.418       .  A
C1517      C1518   1.415       .  A
C1517      C1520   1.450       .  S
C1518      C1522   1.449       .  S
C1519      N1526   1.157       .  T
C1520      N1527   1.157       .  T
C1521      N1525   1.157       .  T
C1522      N1528   1.157       .  T
C1523      N1532   1.157       .  T
C1524      N1530   1.157       .  T
C1533      C1534   1.411       .  A
C1533      C1538   1.413       .  A
C1533      C1551   1.450       .  S
C1534      C1539   1.497       .  S
C1534      C1535   1.409       .  A
C1535      C1536   1.410       .  A
C1535      C1540   1.451       .  S
C1536      C1537   1.417       .  A
C1536      C1552   1.451       .  S
C1537      C1538   1.416       .  A
C1538      C1541   1.451       .  S
C1539      C1542   1.410       .  A
C1539      C1546   1.408       .  A
C1540      N1557   1.157       .  T
C1541      N1559   1.157       .  T
C1542      C1543   1.412       .  A
C1542      C1547   1.451       .  S
C1543      C1544   1.419       .  A
C1543      C1549   1.451       .  S
C1544      C1545   1.421       .  A
C1545      C1546   1.412       .  A
C1545      C1548   1.452       .  S
C1546      C1550   1.451       .  S
C1547      N1554   1.157       .  T
C1548      N1555   1.158       .  T
C1549      N1553   1.158       .  T
C1550      N1556   1.157       .  T
C1551      N1560   1.157       .  T
C1552      N1558   1.157       .  T
C1561      C1562   1.409       .  A
C1561      C1566   1.412       .  A
C1561      C1579   1.452       .  S
C1562      C1567   1.502       .  S
C1562      C1563   1.411       .  A
C1563      C1564   1.414       .  A
C1563      C1568   1.450       .  S
C1564      C1565   1.418       .  A
C1564      C1580   1.451   1_545  S
C1565      C1566   1.420       .  A
C1566      C1569   1.451       .  S
C1567      C1570   1.412       .  A
C1567      C1574   1.410       .  A
C1568      N1585   1.157       .  T
C1569      N1587   1.157       .  T
C1570      C1571   1.415       .  A
C1570      C1575   1.450       .  S
C1571      C1572   1.416       .  A
C1571      C1577   1.450       .  S
C1572      C1573   1.417       .  A
C1573      C1574   1.412       .  A
C1573      C1576   1.451       .  S
C1574      C1578   1.451       .  S
C1575      N1582   1.157       .  T
C1576      N1583   1.157       .  T
C1577      N1581   1.157       .  T
C1578      N1584   1.157       .  T
C1579      N1588   1.157       .  T
C1580      N1586   1.157       .  T
C1589      C1590   1.409       .  A
C1589      C1594   1.412       .  A
C1589      C1607   1.450       .  S
C1590      C1595   1.495       .  S
C1590      C1591   1.412       .  A
C1591      C1592   1.408       .  A
C1591      C1596   1.452       .  S
C1592      C1593   1.416       .  A
C1592      C1608   1.452       .  S
C1593      C1594   1.418       .  A
C1594      C1597   1.451       .  S
C1595      C1598   1.412       .  A
C1595      C1602   1.412       .  A
C1596      N1613   1.157       .  T
C1597      N1615   1.158       .  T
C1598      C1599   1.407       .  A
C1598      C1603   1.451       .  S
C1599      C1600   1.409       .  A
C1599      C1605   1.451       .  S
C1600      C1601   1.410       .  A
C1601      C1602   1.412       .  A
C1601      C1604   1.449       .  S
C1602      C1606   1.450       .  S
C1603      N1610   1.157       .  T
C1604      N1611   1.157       .  T
C1605      N1609   1.157       .  T
C1606      N1612   1.157       .  T
C1607      N1616   1.157       .  T
C1608      N1614   1.157       .  T
C1617      C1618   1.413       .  A
C1617      C1622   1.414       .  A
C1617      C1635   1.450       .  S
C1618      C1623   1.503       .  S
C1618      C1619   1.413       .  A
C1619      C1620   1.412       .  A
C1619      C1624   1.450       .  S
C1620      C1621   1.411       .  A
C1620      C1636   1.451       .  S
C1621      C1622   1.411       .  A
C1622      C1625   1.450       .  S
C1623      C1626   1.411       .  A
C1623      C1630   1.410       .  A
C1624      N1641   1.157       .  T
C1625      N1643   1.157       .  T
C1626      C1627   1.412       .  A
C1626      C1631   1.452       .  S
C1627      C1628   1.419       .  A
C1627      C1633   1.452       .  S
C1628      C1629   1.420       .  A
C1629      C1630   1.415       .  A
C1629      C1632   1.451       .  S
C1630      C1634   1.450       .  S
C1631      N1638   1.157       .  T
C1632      N1639   1.157       .  T
C1633      N1637   1.157       .  T
C1634      N1640   1.157       .  T
C1635      N1644   1.157       .  T
C1636      N1642   1.157       .  T
C1645      C1646   1.409       .  A
C1645      C1650   1.409       .  A
C1645      C1663   1.451       .  S
C1646      C1651   1.493       .  S
C1646      C1647   1.411       .  A
C1647      C1648   1.412       .  A
C1647      C1652   1.450       .  S
C1648      C1649   1.413       .  A
C1648      C1664   1.450       .  S
C1649      C1650   1.415       .  A
C1650      C1653   1.451       .  S
C1651      C1654   1.409       .  A
C1651      C1658   1.408       .  A
C1652      N1669   1.157       .  T
C1653      N1671   1.157       .  T
C1654      C1655   1.413       .  A
C1654      C1659   1.450       .  S
C1655      C1656   1.418       .  A
C1655      C1661   1.451       .  S
C1656      C1657   1.418       .  A
C1657      C1658   1.407       .  A
C1657      C1660   1.453       .  S
C1658      C1662   1.452       .  S
C1659      N1666   1.157       .  T
C1660      N1667   1.157       .  T
C1661      N1665   1.158       .  T
C1662      N1668   1.157       .  T
C1663      N1672   1.157       .  T
C1664      N1670   1.157       .  T
