geometry optimzed in LAMMPS
_audit_creation_date              2020-11-30 
_audit_creation_method            'lammps2cif' 
_symmetry_space_group_name_H-M    'P1' 
_symmetry_Int_Tables_number       1 
_symmetry_cell_setting            triclinic 
loop_ 
_symmetry_equiv_pos_as_xyz 
  x,y,z 
_cell_length_a                    25.61166067 
_cell_length_b                    23.889216417799418 
_cell_length_c                    38.822616352937 
_cell_angle_alpha                 89.99141067286439 
_cell_angle_beta                  89.77315624859867 
_cell_angle_gamma                 87.09209002000858 
loop_ 
_atom_site_label 
_atom_site_type_symbol 
_atom_site_fract_x 
_atom_site_fract_y 
_atom_site_fract_z 
_atom_site_charge 
O1          O  0.29247219  0.43799350  0.03552009    -0.73800
O2          O  0.29846740  0.54420977  0.46492900    -0.73900
O3          O  0.29730878  0.55002793  0.03403552    -0.73900
O4          O  0.29373489  0.43182035  0.46500711    -0.74000
O5          O  0.20672526  0.44180062  0.46462355    -0.73900
O6          O  0.21028390  0.55999060  0.03421587    -0.73900
O7          O  0.21142174  0.55385151  0.46565604    -0.73900
O8          O  0.20552009  0.44803744  0.03699732    -0.73900
Ni9        Ni  0.29730278  0.49247509  0.99954434     1.25400
Ni10       Ni  0.20594569  0.49769610  0.50015410     1.25400
C11         C  0.24857476  0.42619766  0.04892817     0.88300
C12         C  0.25560096  0.56670990  0.45326847     0.88300
C13         C  0.25462457  0.57243027  0.04630132     0.88300
C14         C  0.24952346  0.41950713  0.45248730     0.88500
O15         O  0.04333908  0.05376092  0.46370830    -0.73800
O16         O  0.04586095  0.94396048  0.03513520    -0.73900
O17         O  0.04237084  0.94129402  0.46438990    -0.73900
O18         O  0.04840570  0.05627770  0.03282450    -0.74000
O19         O  0.45624654  0.05636097  0.03644614    -0.73900
O20         O  0.45459825  0.94744187  0.46494579    -0.73900
O21         O  0.45048622  0.94364687  0.03441716    -0.73900
O22         O  0.45846785  0.06016968  0.46492103    -0.73900
Ni23       Ni  0.04971076  0.99774590  0.99881770     1.25400
Ni24       Ni  0.45006527  0.00204972  0.00041609     1.25400
C25         C  0.50262375  0.07426369  0.45294733     0.88300
C26         C  0.49314847  0.92028401  0.04585266     0.88300
C27         C  0.99868592  0.92564160  0.45284792     0.88300
C28         C  0.00542283  0.07757449  0.04535252     0.88500
C29         C  0.44727604  0.27314291  0.24997363     0.30600
C30         C  0.05769011  0.27168007  0.25008715     0.30600
C31         C  0.46849883  0.33209602  0.24996024    -0.05600
C32         C  0.47520851  0.24558388  0.28076135    -0.06400
C33         C  0.47536985  0.24560917  0.21907113    -0.06300
C34         C  0.03357283  0.33158068  0.25160551    -0.05600
C35         C  0.03018836  0.24348558  0.27993688    -0.06400
C36         C  0.03186038  0.24803987  0.21812505    -0.06900
C37         C  0.05236007  0.38415806  0.25388076    -0.31700
N38         N  0.01139178  0.42224031  0.25429257     0.14800
C39         C  0.44809892  0.38645826  0.24994285    -0.31700
H40         H  0.40703290  0.39969510  0.24988914     0.16800
C41         C  0.04489939  0.21568472  0.30960824    -0.30600
N42         N  0.00100401  0.20313558  0.32721931     0.13600
C43         C  0.46040987  0.22054475  0.31076951    -0.30600
C44         C  0.04836650  0.22337592  0.18777432    -0.30900
N45         N  0.00573766  0.21191811  0.16854501     0.14100
H46         H  0.08874923  0.21489039  0.18056952     0.16700
C47         C  0.46068791  0.21945789  0.18947860    -0.30900
H48         H  0.42098600  0.21101356  0.18262932     0.16700
H49         H  0.42063403  0.21264752  0.31788131     0.16700
H50         H  0.09301931  0.39434457  0.25494352     0.16800
H51         H  0.08460095  0.20523213  0.31767016     0.16700
C52         C  0.04894338  0.71978474  0.25033506     0.30600
C53         C  0.44709709  0.72133256  0.25021276     0.30600
C54         C  0.02037430  0.66432205  0.25000239    -0.05600
C55         C  0.02309517  0.75051711  0.28119234    -0.06400
C56         C  0.02458114  0.75137213  0.21925543    -0.06300
C57         C  0.47780357  0.66418594  0.24989564    -0.05600
C58         C  0.47114502  0.75063558  0.28118436    -0.06400
C59         C  0.47055009  0.75080093  0.21900491    -0.06300
C60         C  0.46675053  0.60831304  0.25014940    -0.31700
N61         N  0.51277786  0.57690991  0.25003823     0.14800
C62         C  0.03249201  0.60718620  0.25047956    -0.31700
H63         H  0.07145291  0.58752695  0.25074857     0.16800
C64         C  0.45402646  0.77385205  0.31197717    -0.30600
N65         N  0.49618849  0.79051963  0.32999633     0.13600
C66         C  0.03944703  0.77383387  0.31133367    -0.30600
C67         C  0.45274417  0.77241558  0.18809217    -0.30900
N68         N  0.49443997  0.78835080  0.16917228     0.14100
H69         H  0.41246573  0.77464116  0.17975676     0.16700
C70         C  0.04201142  0.77637135  0.18967197    -0.30900
H71         H  0.08244122  0.77819590  0.18182360     0.16700
H72         H  0.07958421  0.77458304  0.31977644     0.16700
H73         H  0.42809750  0.59226536  0.25069660     0.16800
H74         H  0.41383543  0.77721192  0.32069848     0.16700
C75         C  0.19303191  0.76620773  0.25125251     0.30600
C76         C  0.29937180  0.76877369  0.25072877     0.30600
C77         C  0.21527884  0.82504311  0.25045797    -0.05600
C78         C  0.22114771  0.73917970  0.28231125    -0.06400
C79         C  0.22092849  0.73727709  0.22061507    -0.06300
C80         C  0.26962793  0.82633408  0.25017150    -0.05600
C81         C  0.27529979  0.74066901  0.28203767    -0.06400
C82         C  0.27506856  0.73866714  0.22036829    -0.06300
C83         C  0.28188051  0.88189796  0.24936523    -0.31700
N84         N  0.23651402  0.91439306  0.24920640     0.14800
C85         C  0.19584185  0.87991884  0.24983075    -0.31700
H86         H  0.15497610  0.89397034  0.24986771     0.16800
C87         C  0.29331444  0.71598037  0.31190160    -0.30600
N88         N  0.25163350  0.69904311  0.33032065     0.13600
C89         C  0.20733876  0.71315956  0.31228757    -0.30600
C90         C  0.29272547  0.71326730  0.19054456    -0.30900
N91         N  0.25082938  0.69621903  0.17262766     0.14100
H92         H  0.33305184  0.70912221  0.18213361     0.16700
C93         C  0.20673469  0.71072519  0.19095929    -0.30900
H94         H  0.16720018  0.70271913  0.18340631     0.16700
H95         H  0.16792268  0.70450371  0.31996911     0.16700
H96         H  0.32088806  0.89701343  0.24889913     0.16800
H97         H  0.33378984  0.71152090  0.31969788     0.16700
C98         C  0.30803974  0.21725791  0.24987143     0.30600
C99         C  0.20212617  0.21544037  0.24988590     0.30600
C100        C  0.28581092  0.15856018  0.24922317    -0.05600
C101        C  0.28029777  0.24443713  0.28116099    -0.06400
C102        C  0.28050017  0.24639806  0.21925546    -0.06300
C103        C  0.23143294  0.15754295  0.24922556    -0.05600
C104        C  0.22628914  0.24351955  0.28124376    -0.06400
C105        C  0.22652712  0.24548218  0.21919996    -0.06300
C106        C  0.21904942  0.10197724  0.24906192    -0.31700
N107        N  0.26438231  0.06934393  0.24892782     0.14800
C108        C  0.30515264  0.10369933  0.24904080    -0.31700
H109        H  0.34601496  0.08961362  0.24916578     0.16800
C110        C  0.20870565  0.26966611  0.31105161    -0.30600
N111        N  0.25071896  0.28655032  0.32901468     0.13600
C112        C  0.29465794  0.27111913  0.31080309    -0.30600
C113        C  0.20914514  0.27351948  0.19004923    -0.30900
N114        N  0.25122301  0.29167165  0.17242092     0.14100
H115        H  0.16878823  0.27962449  0.18222986     0.16700
C116        C  0.29502296  0.27506287  0.19027805    -0.30900
H117        H  0.33464293  0.28391116  0.18320823     0.16700
H118        H  0.33419332  0.27962762  0.31812343     0.16700
H119        H  0.17999357  0.08696392  0.24926684     0.16800
H120        H  0.16831423  0.27547190  0.31909762     0.16700
C121        C  0.23010028  0.97494690  0.24861942    -0.15800
C122        C  0.27075143  0.00878088  0.24909508    -0.31000
H123        H  0.19057136  0.99335288  0.24798030     0.13200
H124        H  0.31028112  0.99037292  0.24974472     0.13700
C125        C  0.38824404  0.72067958  0.25055934    -0.15800
C126        C  0.35829457  0.76873377  0.25044268    -0.31000
H127        H  0.36985655  0.68071224  0.25082266     0.13200
H128        H  0.37688492  0.80858262  0.25008257     0.13700
C129        C  0.10812807  0.71715178  0.25099649    -0.15800
C130        C  0.13410703  0.76495720  0.25134182    -0.31000
H131        H  0.12954878  0.67676422  0.25101013     0.13200
H132        H  0.11172059  0.80478488  0.25125969     0.13700
C133        C  0.36645297  0.22008747  0.24989767    -0.15800
C134        C  0.38890804  0.26977465  0.25012820    -0.31000
H135        H  0.39068225  0.18141831  0.24962152     0.13200
H136        H  0.36454361  0.30834910  0.25037312     0.13700
C137        C  0.11632508  0.26673864  0.25059444    -0.15800
C138        C  0.14338048  0.21709150  0.24984418    -0.31000
H139        H  0.13757028  0.30490740  0.25146884     0.13200
H140        H  0.12303376  0.17832324  0.24903559     0.13700
C141        C  0.97945191  0.52020198  0.24969541    -0.15800
C142        C  0.01824906  0.48178532  0.25595497    -0.31000
H143        H  0.94058277  0.50643034  0.24422172     0.13200
H144        H  0.44083009  0.49943272  0.24797476     0.13700
C145        C  0.44930464  0.87956730  0.40506169    -0.12800
C146        C  0.99884087  0.88726999  0.42305033     0.09400
C147        C  0.04418076  0.87965547  0.40282145    -0.12800
C148        C  0.04353679  0.84899618  0.37233202    -0.12800
C149        C  0.99770324  0.82432457  0.36146165     0.09400
C150        C  0.44900243  0.84710824  0.37507796    -0.12800
H151        H  0.41340893  0.90191463  0.41300690     0.13400
H152        H  0.07985196  0.89926097  0.40983030     0.13400
H153        H  0.07873893  0.84628626  0.35685979     0.13400
H154        H  0.41291367  0.84588829  0.36085027     0.13400
C155        C  0.04725690  0.88549497  0.09863710    -0.12800
C156        C  0.49149184  0.87922352  0.07438197     0.09400
C157        C  0.44543186  0.87407237  0.09361237    -0.12800
C158        C  0.44589915  0.84258827  0.12397120    -0.12800
C159        C  0.49236517  0.81499288  0.13568770     0.09400
C160        C  0.04665076  0.85405249  0.12897590    -0.12800
H161        H  0.08254538  0.90615101  0.09187612     0.13400
H162        H  0.40955320  0.89678644  0.08622289     0.13400
H163        H  0.41031060  0.84236054  0.13900656     0.13400
H164        H  0.08147260  0.85174311  0.14467274     0.13400
C165        C  0.45766157  0.14108357  0.41167292    -0.12800
C166        C  0.50399452  0.11439686  0.42394003     0.09400
C167        C  0.04054362  0.14356039  0.41339174    -0.12800
C168        C  0.04068887  0.17544021  0.38314205    -0.12800
C169        C  0.50458149  0.17918092  0.36283515     0.09400
C170        C  0.45798118  0.17337197  0.38168917    -0.12800
H171        H  0.42080367  0.13594978  0.42477989     0.13400
H172        H  0.07296589  0.14552975  0.43110769     0.13400
H173        H  0.07303604  0.20182487  0.37832706     0.13400
H174        H  0.42126896  0.19282938  0.37319442     0.13400
C175        C  0.45881036  0.17240661  0.11848594    -0.12800
C176        C  0.00650185  0.18306075  0.13558859     0.09400
C177        C  0.05330532  0.15782218  0.12220210    -0.12800
C178        C  0.05329676  0.12586824  0.09203024    -0.12800
C179        C  0.00653567  0.11780037  0.07441953     0.09400
C180        C  0.45784928  0.13914228  0.08890286    -0.12800
H181        H  0.42309961  0.19531908  0.12602695     0.13400
H182        H  0.09008959  0.16079954  0.13537516     0.13400
H183        H  0.08974849  0.10562217  0.08328225     0.13400
H184        H  0.42144931  0.13681245  0.07501086     0.13400
C185        C  0.21098444  0.63708761  0.41444313    -0.12800
C186        C  0.25656996  0.60588536  0.42397418     0.09400
C187        C  0.30155645  0.60863481  0.40343738    -0.12800
C188        C  0.30026521  0.63996313  0.37307866    -0.12800
C189        C  0.25408090  0.66973953  0.36280385     0.09400
C190        C  0.20983760  0.66892077  0.38432325    -0.12800
H191        H  0.17578692  0.63609365  0.42994351     0.13400
H192        H  0.33715053  0.58467621  0.41002963     0.13400
H193        H  0.33500214  0.63901020  0.35713991     0.13400
H194        H  0.17402152  0.69236264  0.37781696     0.13400
C195        C  0.30012675  0.60920258  0.09765396    -0.12800
C196        C  0.25588614  0.60998624  0.07642021     0.09400
C197        C  0.21072346  0.64167187  0.08654454    -0.12800
C198        C  0.20933883  0.67073467  0.11774697    -0.12800
C199        C  0.25294908  0.66834568  0.13968109     0.09400
C200        C  0.29858049  0.63776838  0.12903426    -0.12800
H201        H  0.33521475  0.58444091  0.09077856     0.13400
H202        H  0.17601163  0.64306708  0.07066607     0.13400
H203        H  0.17394086  0.69478565  0.12469028     0.13400
H204        H  0.33266721  0.63430816  0.14538700     0.13400
C205        C  0.20479243  0.35094326  0.37050080    -0.12800
C206        C  0.24910941  0.31700520  0.36120149     0.09400
C207        C  0.29239964  0.31454334  0.38348038    -0.12800
C208        C  0.29199823  0.34652449  0.41367435    -0.12800
C209        C  0.24810606  0.38126608  0.42251643     0.09400
C210        C  0.20422026  0.38248390  0.40086714    -0.12800
H211        H  0.17104968  0.35453844  0.35382686     0.13400
H212        H  0.32678750  0.28810046  0.37753944     0.13400
H213        H  0.32632738  0.34453746  0.42992100     0.13400
H214        H  0.17005607  0.40940062  0.40675177     0.13400
C215        C  0.29343334  0.35713749  0.08917307    -0.12800
C216        C  0.24806436  0.38868741  0.07943949     0.09400
C217        C  0.20335190  0.38683380  0.10042796    -0.12800
C218        C  0.20425199  0.35492554  0.13071640    -0.12800
C219        C  0.24979260  0.32362077  0.14068181     0.09400
C220        C  0.29421224  0.32480147  0.11924400    -0.12800
H221        H  0.32857827  0.35759181  0.07358327     0.13400
H222        H  0.16799035  0.41126132  0.09393486     0.13400
H223        H  0.16949968  0.35594616  0.14666229     0.13400
H224        H  0.32973071  0.30064692  0.12554215     0.13400
O225        O  0.29353274  0.43199819  0.53507590    -0.73800
O226        O  0.29633236  0.54751989  0.96347390    -0.73900
O227        O  0.29845063  0.54446764  0.53518541    -0.73900
O228        O  0.29068134  0.43544747  0.96534568    -0.74000
O229        O  0.20365337  0.44481788  0.96646157    -0.73900
O230        O  0.21139956  0.55321089  0.53535391    -0.73900
O231        O  0.20931742  0.55686156  0.96416519    -0.73900
O232        O  0.20645472  0.44107521  0.53490069    -0.73900
Ni233      Ni  0.29918839  0.48779572  0.50005164     1.25400
Ni234      Ni  0.20412289  0.50271475  0.00047833     1.25400
C235        C  0.24909029  0.41916729  0.54717138     0.88300
C236        C  0.25347526  0.56906824  0.95121127     0.88300
C237        C  0.25560142  0.56668246  0.54731676     0.88300
C238        C  0.24601639  0.42242905  0.95386566     0.88500
O239        O  0.04765606  0.05206904  0.96248824    -0.73800
O240        O  0.04260172  0.94134628  0.53447890    -0.73900
O241        O  0.04459452  0.93973845  0.96487890    -0.73900
O242        O  0.04426382  0.05397214  0.53388861    -0.74000
O243        O  0.45846302  0.06042502  0.53483451    -0.73900
O244        O  0.45022118  0.94716588  0.96417592    -0.73900
O245        O  0.45499762  0.94785895  0.53524103    -0.73900
O246        O  0.45576954  0.05976671  0.96647000    -0.73900
Ni247      Ni  0.04625476  0.99739342  0.49912530     1.25400
Ni248      Ni  0.45355440  0.00418977  0.49997541     1.25400
C249        C  0.50010085  0.07288262  0.95429166     0.88300
C250        C  0.49801947  0.92589994  0.54704250     0.88300
C251        C  0.00037303  0.92653915  0.95273989     0.88300
C252        C  0.00110530  0.07562367  0.54571938     0.88500
C253        C  0.44258204  0.27280352  0.75118969     0.30600
C254        C  0.04969587  0.27687117  0.74824916     0.30600
C255        C  0.46478899  0.33125263  0.75115693    -0.05600
C256        C  0.47043084  0.24451901  0.78199469    -0.06400
C257        C  0.47010238  0.24484700  0.71996801    -0.06300
C258        C  0.02066635  0.33514993  0.74926578    -0.05600
C259        C  0.02516242  0.24702773  0.77874264    -0.06400
C260        C  0.02500647  0.24959775  0.71687867    -0.06900
C261        C  0.03253486  0.39091316  0.75032289    -0.31700
N262        N  0.98679081  0.42302345  0.75111767     0.14800
C263        C  0.44495963  0.38582858  0.75063883    -0.31700
H264        H  0.40400784  0.39959404  0.75054793     0.16800
C265        C  0.04275918  0.22090093  0.80831634    -0.30600
N266        N  0.00080346  0.20413757  0.82649848     0.13600
C267        C  0.45599163  0.21957523  0.81229040    -0.30600
C268        C  0.04220355  0.22520850  0.68656080    -0.30900
N269        N  0.99996720  0.20971925  0.66830125     0.14100
H270        H  0.08255478  0.21978306  0.67836754     0.16700
C271        C  0.45566547  0.22012802  0.68963716    -0.30900
H272        H  0.41602215  0.21266871  0.68210649     0.16700
H273        H  0.41631195  0.21235644  0.82009581     0.16700
H274        H  0.07144300  0.40641638  0.75042668     0.16800
H275        H  0.08313261  0.21568045  0.81625149     0.16700
C276        C  0.05490965  0.72413515  0.74964851     0.30600
C277        C  0.44894691  0.72182646  0.74891468     0.30600
C278        C  0.03184279  0.66649462  0.75058259    -0.05600
C279        C  0.02793719  0.75377383  0.78039059    -0.06400
C280        C  0.02756618  0.75160269  0.71848365    -0.06300
C281        C  0.47821004  0.66371783  0.74862473    -0.05600
C282        C  0.47271511  0.74989225  0.78029768    -0.06400
C283        C  0.47408222  0.75118854  0.71840132    -0.06300
C284        C  0.46600347  0.60804160  0.74785676    -0.31700
N285        N  0.51146852  0.57555097  0.74776607     0.14800
C286        C  0.05150143  0.61213513  0.75130888    -0.31700
H287        H  0.09238785  0.59816955  0.75124217     0.16800
C288        C  0.45450663  0.77462615  0.81030598    -0.30600
N289        N  0.49608346  0.79069326  0.82898342     0.13600
C290        C  0.04312409  0.77943383  0.81017094    -0.30600
C291        C  0.45722063  0.77668665  0.68844166    -0.30900
N292        N  0.49958028  0.79342876  0.67058741     0.14100
H293        H  0.41702244  0.78154014  0.68010168     0.16700
C294        C  0.04254465  0.77632946  0.68833221    -0.30900
H295        H  0.08244827  0.78315433  0.68097457     0.16700
H296        H  0.08298090  0.78617577  0.81758537     0.16700
H297        H  0.42700700  0.59282413  0.74725648     0.16800
H298        H  0.41393688  0.77973232  0.81805339     0.16700
C299        C  0.19657575  0.77222045  0.74852662     0.30600
C300        C  0.30256569  0.77433762  0.74844481     0.30600
C301        C  0.21847662  0.83052423  0.74837552    -0.05600
C302        C  0.22410836  0.74419323  0.77946079    -0.06400
C303        C  0.22438815  0.74408226  0.71759887    -0.06300
C304        C  0.27274019  0.83234751  0.74834112    -0.05600
C305        C  0.27815963  0.74517005  0.77948208    -0.06400
C306        C  0.27842679  0.74526698  0.71746237    -0.06300
C307        C  0.28360629  0.88852458  0.74763421    -0.31700
N308        N  0.23735670  0.91987798  0.74731203     0.14800
C309        C  0.19771218  0.88453796  0.74769131    -0.31700
H310        H  0.15657444  0.89755845  0.74746661     0.16800
C311        C  0.29546556  0.71843215  0.80908928    -0.30600
N312        N  0.25329489  0.70111377  0.82698688     0.13600
C313        C  0.20952969  0.71685828  0.80886033    -0.30600
C314        C  0.29598028  0.72008423  0.68740709    -0.30900
N315        N  0.25403113  0.70307995  0.66937106     0.14100
H316        H  0.33636997  0.71542907  0.67925778     0.16700
C317        C  0.21009147  0.71779930  0.68787203    -0.30900
H318        H  0.17046727  0.70956418  0.68070626     0.16700
H319        H  0.16987958  0.70833697  0.81606402     0.16700
H320        H  0.32219368  0.90481541  0.74729239     0.16800
H321        H  0.33578405  0.71271186  0.81706240     0.16700
C322        C  0.30122355  0.22261489  0.75122125     0.30600
C323        C  0.19509469  0.22171662  0.75029257     0.30600
C324        C  0.27867722  0.16457593  0.75055084    -0.05600
C325        C  0.27299500  0.25021842  0.78207827    -0.06400
C326        C  0.27453277  0.25145984  0.72037572    -0.06300
C327        C  0.22429299  0.16336765  0.75002296    -0.05600
C328        C  0.21887307  0.24986850  0.78178963    -0.06400
C329        C  0.22050387  0.25092726  0.71986005    -0.06300
C330        C  0.21283414  0.10736373  0.74879281    -0.31700
N331        N  0.25882633  0.07557500  0.74863966     0.14800
C332        C  0.29884887  0.11041718  0.74969590    -0.31700
H333        H  0.33988461  0.09698303  0.74971535     0.16800
C334        C  0.20127138  0.27512859  0.81187968    -0.30600
N335        N  0.24338707  0.29086949  0.83026727     0.13600
C336        C  0.28730382  0.27572026  0.81195560    -0.30600
C337        C  0.20400853  0.27571269  0.68963393    -0.30900
N338        N  0.24668414  0.29164162  0.67185794     0.14100
H339        H  0.16397118  0.28033918  0.68092711     0.16700
C340        C  0.29000940  0.27691040  0.69061068    -0.30900
H341        H  0.32990538  0.28416550  0.68332144     0.16700
H342        H  0.32697545  0.28321035  0.81936727     0.16700
H343        H  0.17410330  0.09145446  0.74797164     0.16800
H344        H  0.16083779  0.28072215  0.81985515     0.16700
C345        C  0.22842400  0.98005619  0.74706348    -0.15800
C346        C  0.26742175  0.01540691  0.74777301    -0.31000
H347        H  0.18825896  0.99691268  0.74677563     0.13200
H348        H  0.30753929  0.99848018  0.74810170     0.13700
C349        C  0.39002524  0.72367209  0.74846164    -0.15800
C350        C  0.36147760  0.77281989  0.74845358    -0.31000
H351        H  0.37037176  0.68443567  0.74822820     0.13200
H352        H  0.38103273  0.81212336  0.74862905     0.13700
C353        C  0.11348379  0.72378153  0.74920726    -0.15800
C354        C  0.13806235  0.77177276  0.74863552    -0.31000
H355        H  0.13622316  0.68416710  0.74942271     0.13200
H356        H  0.11511019  0.81124947  0.74847147     0.13700
C357        C  0.35984660  0.22339532  0.75153588    -0.15800
C358        C  0.38399546  0.27184414  0.75153914    -0.31000
H359        H  0.38302943  0.18406134  0.75142310     0.13200
H360        H  0.36081206  0.31118770  0.75164361     0.13700
C361        C  0.10856788  0.27413302  0.74862139    -0.15800
C362        C  0.13625796  0.22441293  0.74919513    -0.31000
H363        H  0.12879840  0.31300439  0.74907356     0.13200
H364        H  0.11605322  0.18552482  0.74876269     0.13700
C365        C  0.01872980  0.51765547  0.75236978    -0.15800
C366        C  0.97899651  0.48323314  0.75184580    -0.31000
H367        H  0.05853562  0.50004863  0.75264702     0.13200
H368        H  0.43858563  0.49897158  0.75116290     0.13700
C369        C  0.44713755  0.88438135  0.90137326    -0.12800
C370        C  0.99867263  0.88805961  0.92290154     0.09400
C371        C  0.04266347  0.85396815  0.91339000    -0.12800
C372        C  0.04252509  0.82239036  0.88301426    -0.12800
C373        C  0.99862910  0.82479172  0.86122094     0.09400
C374        C  0.44818161  0.85236052  0.87117937    -0.12800
H375        H  0.41226934  0.91010373  0.90745690     0.13400
H376        H  0.07745622  0.85231884  0.92918502     0.13400
H377        H  0.07704266  0.79648373  0.87651932     0.13400
H378        H  0.41406824  0.85460633  0.85483354     0.13400
C379        C  0.04452221  0.86066364  0.58847669    -0.12800
C380        C  0.49706838  0.88715818  0.57675302     0.09400
C381        C  0.45190364  0.88486658  0.59719774    -0.12800
C382        C  0.45256425  0.85362922  0.62761340    -0.12800
C383        C  0.49826700  0.82328705  0.63818583     0.09400
C384        C  0.04446487  0.82750735  0.61816176    -0.12800
H385        H  0.08112600  0.86557017  0.57501740     0.13400
H386        H  0.41649854  0.90900142  0.59041592     0.13400
H387        H  0.41758768  0.85492271  0.64332447     0.13400
H388        H  0.08112755  0.80735668  0.62615445     0.13400
C389        C  0.45681559  0.14487188  0.91524873    -0.12800
C390        C  0.50188623  0.11314387  0.92529938     0.09400
C391        C  0.04936217  0.11155772  0.89908984    -0.12800
C392        C  0.04822994  0.14256035  0.86856056    -0.12800
C393        C  0.50144418  0.17711946  0.86377488     0.09400
C394        C  0.45666551  0.17672335  0.88497897    -0.12800
H395        H  0.42118108  0.14396327  0.93031837     0.13400
H396        H  0.08447436  0.08649771  0.90536286     0.13400
H397        H  0.08250676  0.14025132  0.85217474     0.13400
H398        H  0.42107649  0.20020216  0.87799796     0.13400
C399        C  0.45670162  0.17564109  0.61719012    -0.12800
C400        C  0.00155691  0.18007390  0.63586013     0.09400
C401        C  0.04630188  0.14715839  0.62618646    -0.12800
C402        C  0.04675187  0.11531886  0.59605150    -0.12800
C403        C  0.00229028  0.11501698  0.57501165     0.09400
C404        C  0.45751978  0.14364524  0.58698084    -0.12800
H405        H  0.42056477  0.19799861  0.62445583     0.13400
H406        H  0.08045068  0.14420636  0.64248520     0.13400
H407        H  0.08129156  0.08903577  0.59001904     0.13400
H408        H  0.42186380  0.14162869  0.57223200     0.13400
C409        C  0.21002957  0.63878994  0.91084368    -0.12800
C410        C  0.25483014  0.60657548  0.92077733     0.09400
C411        C  0.29989184  0.60765436  0.90001937    -0.12800
C412        C  0.29966107  0.63902525  0.86954046    -0.12800
C413        C  0.25447759  0.67054836  0.85920200     0.09400
C414        C  0.20994412  0.67062758  0.88060395    -0.12800
H415        H  0.17475857  0.63907646  0.92634251     0.13400
H416        H  0.33491412  0.58282109  0.90675752     0.13400
H417        H  0.33452003  0.63723125  0.85367595     0.13400
H418        H  0.17477581  0.69520177  0.87405158     0.13400
C419        C  0.30282049  0.61257098  0.59533771    -0.12800
C420        C  0.25677050  0.60663722  0.57645186     0.09400
C421        C  0.21078371  0.63617126  0.58722751    -0.12800
C422        C  0.21032314  0.66920210  0.61692737    -0.12800
C423        C  0.25572455  0.67302665  0.63696285     0.09400
C424        C  0.30227262  0.64511374  0.62530669    -0.12800
H425        H  0.33890802  0.59029467  0.58773503     0.13400
H426        H  0.17474287  0.63299771  0.57302444     0.13400
H427        H  0.17402969  0.69112258  0.62424900     0.13400
H428        H  0.33806606  0.64653256  0.63986058     0.13400
C429        C  0.19696638  0.34999795  0.87446614    -0.12800
C430        C  0.24234584  0.31977039  0.86300628     0.09400
C431        C  0.28754827  0.32006173  0.88355221    -0.12800
C432        C  0.28821222  0.35187973  0.91367603    -0.12800
C433        C  0.24345111  0.38346985  0.92441245     0.09400
C434        C  0.19746949  0.38125093  0.90491500    -0.12800
H435        H  0.16152112  0.35127726  0.85941062     0.13400
H436        H  0.32287223  0.29619862  0.87631818     0.13400
H437        H  0.32411483  0.35243614  0.92827253     0.13400
H438        H  0.16238867  0.40553234  0.91241052     0.13400
C439        C  0.29124746  0.34844601  0.58714735    -0.12800
C440        C  0.24691210  0.38116556  0.57699372     0.09400
C441        C  0.20156285  0.38128147  0.59742515    -0.12800
C442        C  0.20123127  0.35124548  0.62819793    -0.12800
C443        C  0.24606629  0.31980680  0.63903635     0.09400
C444        C  0.29071671  0.31774599  0.61774173    -0.12800
H445        H  0.32663877  0.34733389  0.57174635     0.13400
H446        H  0.16692754  0.40656129  0.59040883     0.13400
H447        H  0.16635911  0.35441088  0.64401390     0.13400
H448        H  0.32551204  0.29291190  0.62480348     0.13400
O449        O  0.78947214  0.44171281  0.03338334    -0.73800
O450        O  0.79763070  0.55821106  0.46348950    -0.73900
O451        O  0.79394868  0.55371221  0.03574029    -0.73900
O452        O  0.79349181  0.44562337  0.46479524    -0.74000
O453        O  0.70642763  0.45483315  0.46519945    -0.73900
O454        O  0.70692229  0.56268508  0.03565413    -0.73900
O455        O  0.71062272  0.56714356  0.46471523    -0.73900
O456        O  0.70240624  0.45037197  0.03396116    -0.73900
Ni457      Ni  0.79484838  0.49871888  0.99947074     1.25400
Ni458      Ni  0.70603078  0.51165517  0.50002667     1.25400
C459        C  0.74539973  0.42826202  0.04565612     0.88300
C460        C  0.75449284  0.58036974  0.45190337     0.88300
C461        C  0.75102827  0.57523491  0.04824077     0.88300
C462        C  0.74914301  0.43267110  0.45289545     0.88500
O463        O  0.54553701  0.05232811  0.46486260    -0.73800
O464        O  0.53748475  0.93396438  0.03398841    -0.73900
O465        O  0.54165408  0.93948298  0.46441360    -0.73900
O466        O  0.54322773  0.04653694  0.03594825    -0.74000
O467        O  0.96131944  0.06257070  0.03406066    -0.73900
O468        O  0.95522637  0.94512237  0.46558712    -0.73900
O469        O  0.95872878  0.94969182  0.03535017    -0.73900
O470        O  0.95615267  0.05728714  0.46343797    -0.73900
Ni471      Ni  0.54321289  0.99146612  0.99997637     1.25400
Ni472      Ni  0.95645349  0.00561432  0.99963517     1.25400
C473        C  0.99964628  0.07235379  0.45103990     0.88300
C474        C  0.00217768  0.92983776  0.04777070     0.88300
C475        C  0.49743306  0.92555213  0.45262866     0.88300
C476        C  0.50074549  0.06897627  0.04842728     0.88500
C477        C  0.95133704  0.28117456  0.24912944     0.30600
C478        C  0.55320044  0.27687002  0.24983823     0.30600
C479        C  0.97909766  0.33718645  0.25100313    -0.05600
C480        C  0.97600170  0.24827767  0.27952098    -0.06400
C481        C  0.97773472  0.25260946  0.21756086    -0.06300
C482        C  0.52275860  0.33417163  0.24988600    -0.05600
C483        C  0.52915096  0.24751348  0.28095783    -0.06400
C484        C  0.52938866  0.24733229  0.21873552    -0.06900
C485        C  0.53407026  0.39000766  0.24986374    -0.31700
N486        N  0.48816796  0.42161025  0.24988469     0.14800
C487        C  0.96620463  0.39415699  0.25266285    -0.31700
H488        H  0.92703197  0.41328553  0.25294067     0.16800
C489        C  0.54616361  0.22387913  0.31156419    -0.30600
N490        N  0.50388839  0.20728534  0.32976012     0.13600
C491        C  0.95869688  0.22301534  0.30900594    -0.30600
C492        C  0.54652703  0.22215715  0.18843954    -0.30900
N493        N  0.50424668  0.20510185  0.17063040     0.14100
H494        H  0.58679148  0.21751772  0.17995305     0.16700
C495        C  0.96235886  0.23000687  0.18680096    -0.30900
H496        H  0.92226430  0.22669772  0.17884725     0.16700
H497        H  0.91836765  0.22051125  0.31698577     0.16700
H498        H  0.57278213  0.40592676  0.24963069     0.16800
H499        H  0.58635923  0.22039599  0.32002232     0.16700
C500        C  0.55303652  0.72575354  0.24951320     0.30600
C501        C  0.94263389  0.73116490  0.24952619     0.30600
C502        C  0.53209420  0.66657182  0.24956380    -0.05600
C503        C  0.52507766  0.75284716  0.28065960    -0.06400
C504        C  0.52451667  0.75314640  0.21875688    -0.06300
C505        C  0.96596559  0.67079648  0.24946279    -0.05600
C506        C  0.96897297  0.75654277  0.28073246    -0.06400
C507        C  0.97042876  0.75717105  0.21899095    -0.06300
C508        C  0.94642936  0.61837583  0.24933657    -0.31700
N509        N  0.98690619  0.57970553  0.25010225     0.14800
C510        C  0.55271083  0.61226300  0.24969686    -0.31700
H511        H  0.59381830  0.59921365  0.24969576     0.16800
C512        C  0.95343127  0.78405962  0.31042312    -0.30600
N513        N  0.99677214  0.79465301  0.32908561     0.13600
C514        C  0.53975939  0.77754491  0.31080144    -0.30600
C515        C  0.95595817  0.78568878  0.18954979    -0.30900
N516        N  0.99986073  0.79739493  0.17158040     0.14100
H517        H  0.91626135  0.79759186  0.18218377     0.16700
C518        C  0.53849239  0.77651077  0.18792986    -0.30900
H519        H  0.57800891  0.78402958  0.17992941     0.16700
H520        H  0.57941308  0.78574886  0.31785983     0.16700
H521        H  0.90561775  0.60868744  0.24888344     0.16800
H522        H  0.91354197  0.79601792  0.31750192     0.16700
C523        C  0.69202323  0.78297930  0.24950636     0.30600
C524        C  0.79788855  0.78621210  0.24901594     0.30600
C525        C  0.71366917  0.84204607  0.24924168    -0.05600
C526        C  0.72015301  0.75547041  0.28047662    -0.06400
C527        C  0.71988505  0.75489345  0.21852456    -0.06300
C528        C  0.76801050  0.84357131  0.24898331    -0.05600
C529        C  0.77405560  0.75734734  0.28031882    -0.06400
C530        C  0.77382938  0.75650697  0.21816640    -0.06300
C531        C  0.78016710  0.89902889  0.24922507    -0.31700
N532        N  0.73475608  0.93139151  0.24959927     0.14800
C533        C  0.69407434  0.89686173  0.24961211    -0.31700
H534        H  0.65317336  0.91077464  0.24997161     0.16800
C535        C  0.79196878  0.73284835  0.31044739    -0.30600
N536        N  0.75034181  0.71546526  0.32888702     0.13600
C537        C  0.70625870  0.72934112  0.31050348    -0.30600
C538        C  0.79138679  0.72940903  0.18861141    -0.30900
N539        N  0.74943278  0.71111744  0.17110532     0.14100
H540        H  0.83175324  0.72395434  0.18047342     0.16700
C541        C  0.70558010  0.72676877  0.18939060    -0.30900
H542        H  0.66605517  0.71748888  0.18253530     0.16700
H543        H  0.66677183  0.72069837  0.31795658     0.16700
H544        H  0.81918179  0.91411548  0.24913896     0.16800
H545        H  0.83240091  0.72891345  0.31832934     0.16700
C546        C  0.80757265  0.23378400  0.24964537     0.30600
C547        C  0.70123885  0.23127063  0.25039869     0.30600
C548        C  0.78528615  0.17499068  0.25007695    -0.05600
C549        C  0.77993961  0.26210879  0.28060288    -0.06400
C550        C  0.77922373  0.26149893  0.21898564    -0.06300
C551        C  0.73095271  0.17384523  0.25047063    -0.05600
C552        C  0.72572219  0.26080877  0.28100080    -0.06400
C553        C  0.72516415  0.25999160  0.21925074    -0.06300
C554        C  0.71841339  0.11846487  0.25073886    -0.31700
N555        N  0.76360843  0.08582559  0.25053764     0.14800
C556        C  0.80449343  0.12004020  0.25017058    -0.31700
H557        H  0.84530243  0.10577079  0.24994545     0.16800
C558        C  0.70836630  0.28637630  0.31088503    -0.30600
N559        N  0.75050136  0.30338251  0.32863077     0.13600
C560        C  0.79441268  0.28867923  0.31017090    -0.30600
C561        C  0.70730241  0.28418235  0.18918679    -0.30900
N562        N  0.74906344  0.30091957  0.17067953     0.14100
H563        H  0.66685053  0.28792945  0.18132886     0.16700
C564        C  0.79317214  0.28718314  0.18902043    -0.30900
H565        H  0.83277445  0.29510715  0.18151253     0.16700
H566        H  0.83400415  0.29696166  0.31745668     0.16700
H567        H  0.67933198  0.10354910  0.25111305     0.16800
H568        H  0.66808031  0.29103982  0.31932493     0.16700
C569        C  0.72859511  0.99189676  0.24977231    -0.15800
C570        C  0.76953638  0.02533566  0.25067700    -0.31000
H571        H  0.68914958  0.01049735  0.24906846     0.13200
H572        H  0.80895318  0.00671009  0.25138429     0.13700
C573        C  0.88401125  0.73617365  0.24910565    -0.15800
C574        C  0.85662740  0.78554112  0.24893971    -0.31000
H575        H  0.86284811  0.69793040  0.24905528     0.13200
H576        H  0.87660800  0.82456135  0.24896434     0.13700
C577        C  0.61143563  0.72958466  0.24937759    -0.15800
C578        C  0.63357952  0.77948943  0.24961708    -0.31000
H579        H  0.63605690  0.69118695  0.24923947     0.13200
H580        H  0.60904961  0.81794901  0.24973947     0.13700
C581        C  0.86649199  0.23516886  0.24887464    -0.15800
C582        C  0.89217931  0.28315992  0.24892850    -0.31000
H583        H  0.88903580  0.19544065  0.24846031     0.13200
H584        H  0.87046824  0.32337666  0.24948629     0.13700
C585        C  0.61198984  0.27810254  0.24999663    -0.15800
C586        C  0.64237518  0.23052530  0.25052324    -0.31000
H587        H  0.63003789  0.31826049  0.24975357     0.13200
H588        H  0.62415538  0.19046967  0.25079332     0.13700
C589        C  0.52047849  0.51657725  0.25066723    -0.15800
C590        C  0.48059752  0.48194165  0.24941811    -0.31000
H591        H  0.56026282  0.49910394  0.25208455     0.13200
H592        H  0.05707872  0.49561163  0.26147796     0.13700
C593        C  0.95316667  0.86193949  0.41273412    -0.12800
C594        C  0.49582811  0.88548651  0.42348496     0.09400
C595        C  0.54145278  0.85570228  0.41228819    -0.12800
C596        C  0.54105786  0.82268149  0.38254324    -0.12800
C597        C  0.49518163  0.81927092  0.36286381     0.09400
C598        C  0.95269188  0.83043399  0.38237339    -0.12800
H599        H  0.91764671  0.86706540  0.42788120     0.13400
H600        H  0.57780002  0.85874710  0.42614891     0.13400
H601        H  0.57712249  0.80065041  0.37480118     0.13400
H602        H  0.91692635  0.81126503  0.37528481     0.13400
C603        C  0.53711190  0.84879077  0.08475880    -0.12800
C604        C  0.00232872  0.89216240  0.07807852     0.09400
C605        C  0.95716220  0.86532582  0.08801203    -0.12800
C606        C  0.95674303  0.83314558  0.11813533    -0.12800
C607        C  0.00123682  0.82782255  0.13938182     0.09400
C608        C  0.53747894  0.81678181  0.11491845    -0.12800
H609        H  0.57305771  0.85110799  0.07015468     0.13400
H610        H  0.92202675  0.86944733  0.07258875     0.13400
H611        H  0.92137128  0.81268351  0.12472486     0.13400
H612        H  0.57358541  0.79464101  0.12227587     0.13400
C613        C  0.95734090  0.10783681  0.39715162    -0.12800
C614        C  0.99894036  0.10929574  0.42055687     0.09400
C615        C  0.55108353  0.12302126  0.40652272    -0.12800
C616        C  0.55137071  0.15475637  0.37627572    -0.12800
C617        C  0.99959381  0.17295439  0.35930844     0.09400
C618        C  0.95775287  0.13913244  0.36681359    -0.12800
H619        H  0.92517216  0.08104473  0.40178094     0.13400
H620        H  0.58755430  0.10325544  0.41542295     0.13400
H621        H  0.58814258  0.15806441  0.36289819     0.13400
H622        H  0.92598268  0.13561278  0.34876484     0.13400
C623        C  0.96016497  0.17732495  0.11669694    -0.12800
C624        C  0.50479001  0.17526354  0.13813331     0.09400
C625        C  0.55050533  0.14628202  0.12612518    -0.12800
C626        C  0.54965257  0.11353413  0.09624830    -0.12800
C627        C  0.50300705  0.10848687  0.07779253     0.09400
C628        C  0.96016457  0.14487315  0.08669137    -0.12800
H629        H  0.92339974  0.19682104  0.12519481     0.13400
H630        H  0.58662380  0.14709828  0.14036364     0.13400
H631        H  0.58520046  0.09049986  0.08833095     0.13400
H632        H  0.92346759  0.13995099  0.07353249     0.13400
C633        C  0.70814170  0.64768750  0.41140422    -0.12800
C634        C  0.75482189  0.62000456  0.42245188     0.09400
C635        C  0.80084705  0.62758210  0.40359747    -0.12800
C636        C  0.79971042  0.65987835  0.37347499    -0.12800
C637        C  0.75252364  0.68583810  0.36151791     0.09400
C638        C  0.70704582  0.68040472  0.38152463    -0.12800
H639        H  0.67201740  0.64327162  0.42552911     0.13400
H640        H  0.83748519  0.60687118  0.41139683     0.13400
H641        H  0.83567666  0.66261195  0.35906438     0.13400
H642        H  0.67020214  0.70076111  0.37405171     0.13400
C643        C  0.79700106  0.61573415  0.09888415    -0.12800
C644        C  0.75199823  0.61338331  0.07842314     0.09400
C645        C  0.70678334  0.64518160  0.08835824    -0.12800
C646        C  0.70631324  0.67798076  0.11822279    -0.12800
C647        C  0.75089452  0.67939551  0.13927214     0.09400
C648        C  0.79640943  0.64812717  0.12899245    -0.12800
H649        H  0.83230449  0.59123019  0.09217443     0.13400
H650        H  0.67148961  0.64447975  0.07312374     0.13400
H651        H  0.67083076  0.70218419  0.12473137     0.13400
H652        H  0.83129772  0.64738912  0.14461567     0.13400
C653        C  0.70374842  0.36414248  0.37150983    -0.12800
C654        C  0.74887823  0.33238783  0.36122405     0.09400
C655        C  0.79273650  0.33046940  0.38297625    -0.12800
C656        C  0.79216640  0.36130728  0.41354352    -0.12800
C657        C  0.74755034  0.39424944  0.42320895     0.09400
C658        C  0.70300018  0.39444449  0.40226040    -0.12800
H659        H  0.66949539  0.36721225  0.35530086     0.13400
H660        H  0.82772996  0.30550436  0.37632030     0.13400
H661        H  0.82699972  0.36016362  0.42930374     0.13400
H662        H  0.66824071  0.41996634  0.40885983     0.13400
C663        C  0.79201038  0.36498183  0.08762486    -0.12800
C664        C  0.74484179  0.38939428  0.07513598     0.09400
C665        C  0.69836789  0.38102553  0.09323472    -0.12800
C666        C  0.69948499  0.35119455  0.12418431    -0.12800
C667        C  0.74711039  0.32858427  0.13756495     0.09400
C668        C  0.79312488  0.33476664  0.11829472    -0.12800
H669        H  0.82852590  0.37039180  0.07414873     0.13400
H670        H  0.66139350  0.39950356  0.08427350     0.13400
H671        H  0.66307695  0.34775809  0.13796690     0.13400
H672        H  0.83044542  0.31698236  0.12683015     0.13400
O673        O  0.79440187  0.44682695  0.53485935    -0.73800
O674        O  0.79431903  0.55636423  0.96535013    -0.73900
O675        O  0.79904354  0.55922430  0.53376607    -0.73900
O676        O  0.78934893  0.44413278  0.96350651    -0.74000
O677        O  0.70232211  0.45308709  0.96366323    -0.73900
O678        O  0.71196211  0.56807207  0.53456813    -0.73900
O679        O  0.70725895  0.56534516  0.96556561    -0.73900
O680        O  0.70737899  0.45564284  0.53545752    -0.73900
Ni681      Ni  0.79925591  0.50217749  0.49919183     1.25400
Ni682      Ni  0.70162255  0.50817591  0.99971044     1.25400
C683        C  0.75026465  0.43375402  0.54746148     0.88300
C684        C  0.75157803  0.57864963  0.95347846     0.88300
C685        C  0.75642668  0.58142857  0.54612790     0.88300
C686        C  0.74510568  0.43132278  0.95119429     0.88500
O687        O  0.54273521  0.04949600  0.96575740    -0.73800
O688        O  0.54204672  0.93904551  0.53445701    -0.73900
O689        O  0.53720631  0.93699055  0.96423894    -0.73900
O690        O  0.54549853  0.05170649  0.53507525    -0.74000
O691        O  0.95714367  0.06149719  0.53361121    -0.73900
O692        O  0.95753610  0.94855534  0.96493593    -0.73900
O693        O  0.95552854  0.94870392  0.53566299    -0.73900
O694        O  0.96061377  0.06082439  0.96396818    -0.73900
Ni695      Ni  0.54677796  0.99537465  0.49966326     1.25400
Ni696      Ni  0.95291880  0.00340556  0.49964566     1.25400
C697        C  0.00442631  0.07339518  0.95071053     0.88300
C698        C  0.99885366  0.92743450  0.54729190     0.88300
C699        C  0.49289272  0.92462267  0.95195951     0.88300
C700        C  0.50249898  0.07386438  0.54706142     0.88500
C701        C  0.94357022  0.27628108  0.74857186     0.30600
C702        C  0.54867792  0.27460336  0.75064670     0.30600
C703        C  0.96628223  0.33423749  0.74943160    -0.05600
C704        C  0.97113234  0.24660797  0.77895101    -0.06400
C705        C  0.97084670  0.24931514  0.71701654    -0.06300
C706        C  0.51908576  0.33248096  0.75085322    -0.05600
C707        C  0.52453465  0.24538845  0.78176397    -0.06400
C708        C  0.52415911  0.24591817  0.71971842    -0.06900
C709        C  0.53096964  0.38822806  0.75008733    -0.31700
N710        N  0.48536165  0.42046926  0.74995021     0.14800
C711        C  0.94643916  0.38855251  0.75059795    -0.31700
H712        H  0.90551393  0.40232816  0.75099997     0.16800
C713        C  0.54194043  0.22112592  0.81208525    -0.30600
N714        N  0.49987260  0.20529164  0.83071394     0.13600
C715        C  0.95677457  0.21989991  0.80863702    -0.30600
C716        C  0.54154645  0.22232249  0.68919790    -0.30900
N717        N  0.49958252  0.20624166  0.67086123     0.14100
H718        H  0.58188443  0.21847115  0.68082455     0.16700
C719        C  0.95612986  0.22455996  0.68681864    -0.30900
H720        H  0.91646416  0.21707167  0.67931314     0.16700
H721        H  0.91715692  0.21229539  0.81638801     0.16700
H722        H  0.56988962  0.40365548  0.74961295     0.16800
H723        H  0.58227484  0.21678781  0.82018532     0.16700
C724        C  0.55516505  0.72308280  0.74967625     0.30600
C725        C  0.94873746  0.72452566  0.75022230     0.30600
C726        C  0.53263253  0.66464581  0.74898754    -0.05600
C727        C  0.52681837  0.75057428  0.78072205    -0.06400
C728        C  0.52814151  0.75191716  0.71876583    -0.06300
C729        C  0.97746501  0.66597129  0.75088284    -0.05600
C730        C  0.97378909  0.75401422  0.78069961    -0.06400
C731        C  0.97348699  0.75180920  0.71867323    -0.06300
C732        C  0.96539603  0.61020524  0.75175915    -0.31700
N733        N  0.01103407  0.57787146  0.75198699     0.14800
C734        C  0.55209691  0.60993819  0.74836304    -0.31700
H735        H  0.59298731  0.59592158  0.74840703     0.16800
C736        C  0.95704046  0.77969569  0.81077273    -0.30600
N737        N  0.99957850  0.79534826  0.82868085     0.13600
C738        C  0.54048917  0.77592851  0.81097769    -0.30600
C739        C  0.95657953  0.77640045  0.68836054    -0.30900
N740        N  0.99899249  0.79169424  0.66984065     0.14100
H741        H  0.91623189  0.78208678  0.68054514     0.16700
C742        C  0.54316613  0.77822488  0.68906294    -0.30900
H743        H  0.58293493  0.78603410  0.68176587     0.16700
H744        H  0.57989490  0.78368250  0.81890211     0.16700
H745        H  0.92644004  0.59483371  0.75215513     0.16800
H746        H  0.91682840  0.78529630  0.81924741     0.16700
C747        C  0.69628116  0.77575446  0.74992261     0.30600
C748        C  0.80250799  0.77830904  0.75031710     0.30600
C749        C  0.71819802  0.83437370  0.74978704    -0.05600
C750        C  0.72374510  0.74830502  0.78097993    -0.06400
C751        C  0.72464602  0.74767408  0.71922931    -0.06300
C752        C  0.77260431  0.83616033  0.74993881    -0.05600
C753        C  0.77777448  0.74970380  0.78128850    -0.06400
C754        C  0.77872379  0.74897861  0.71942744    -0.06300
C755        C  0.78382524  0.89217694  0.75009785    -0.31700
N756        N  0.73777952  0.92377685  0.75006019     0.14800
C757        C  0.69782598  0.88863140  0.74993233    -0.31700
H758        H  0.65673477  0.90187386  0.75005665     0.16800
C759        C  0.79475782  0.72561240  0.81164848    -0.30600
N760        N  0.75243842  0.70913406  0.82968385     0.13600
C761        C  0.70886741  0.72298156  0.81090432    -0.30600
C762        C  0.79674715  0.72535919  0.68910602    -0.30900
N763        N  0.75503272  0.70956813  0.67050850     0.14100
H764        H  0.83714994  0.72153592  0.68086147     0.16700
C765        C  0.71076970  0.72310414  0.68886962    -0.30900
H766        H  0.67129810  0.71576247  0.68086955     0.16700
H767        H  0.66912846  0.71497744  0.81809717     0.16700
H768        H  0.82250459  0.90823758  0.75061937     0.16800
H769        H  0.83494798  0.72157807  0.82008104     0.16700
C770        C  0.80204561  0.22703039  0.74905882     0.30600
C771        C  0.69598663  0.22519578  0.74887652     0.30600
C772        C  0.77997241  0.16874057  0.74860484    -0.05600
C773        C  0.77415686  0.25469427  0.78009586    -0.06400
C774        C  0.77472927  0.25574536  0.71836358    -0.06300
C775        C  0.72570788  0.16719586  0.74855675    -0.05600
C776        C  0.72008949  0.25374953  0.78016506    -0.06400
C777        C  0.72066887  0.25491908  0.71800150    -0.06300
C778        C  0.71441777  0.11113910  0.74823674    -0.31700
N779        N  0.76041171  0.07943021  0.74807530     0.14800
C780        C  0.80035242  0.11450144  0.74821055    -0.31700
H781        H  0.84142979  0.10118347  0.74810511     0.16800
C782        C  0.70263562  0.27956343  0.81014383    -0.30600
N783        N  0.74471427  0.29651886  0.82812432     0.13600
C784        C  0.78854534  0.28130362  0.80966979    -0.30600
C785        C  0.70422156  0.28132475  0.68802044    -0.30900
N786        N  0.74693245  0.29841963  0.67040474     0.14100
H787        H  0.66407847  0.28674581  0.67968773     0.16700
C788        C  0.79009102  0.28276577  0.68913496    -0.30900
H789        H  0.83004921  0.29075148  0.68249237     0.16700
H790        H  0.82819680  0.28964111  0.81669958     0.16700
H791        H  0.67572632  0.09511183  0.74792419     0.16800
H792        H  0.66225217  0.28492463  0.81822614     0.16700
C793        C  0.72954979  0.98406130  0.75065583    -0.15800
C794        C  0.76866232  0.01915127  0.74753006    -0.31000
H795        H  0.68970980  0.00128099  0.75347674     0.13200
H796        H  0.80851570  0.00194284  0.74469841     0.13700
C797        C  0.88977016  0.72706699  0.75057962    -0.15800
C798        C  0.86151723  0.77645912  0.75038971    -0.31000
H799        H  0.86980911  0.68802019  0.75094570     0.13200
H800        H  0.88132890  0.81559047  0.75006890     0.13700
C801        C  0.61389234  0.72473953  0.74994320    -0.15800
C802        C  0.63758510  0.77368095  0.74986665    -0.31000
H803        H  0.63742619  0.68562103  0.74998679     0.13200
H804        H  0.61393542  0.81271400  0.74975633     0.13700
C805        C  0.86062629  0.22775953  0.74891152    -0.15800
C806        C  0.88498799  0.27599150  0.74897172    -0.31000
H807        H  0.88370781  0.18836433  0.74852282     0.13200
H808        H  0.86202547  0.31547116  0.74940296     0.13700
C809        C  0.60761132  0.27407662  0.75005818    -0.15800
C810        C  0.63705691  0.22567499  0.74911980    -0.31000
H811        H  0.62654982  0.31373377  0.75030266     0.13200
H812        H  0.61814559  0.18598682  0.74885055     0.13700
C813        C  0.51835681  0.51509133  0.74729170    -0.15800
C814        C  0.47823301  0.48091190  0.74946759    -0.31000
H815        H  0.55798977  0.49700850  0.74563043     0.13200
H816        H  0.93919141  0.50083588  0.75160703     0.13700
C817        C  0.95417679  0.88890746  0.90182085    -0.12800
C818        C  0.49151785  0.88545347  0.92244190     0.09400
C819        C  0.53608329  0.85173847  0.91355643    -0.12800
C820        C  0.53697585  0.81928380  0.88358330    -0.12800
C821        C  0.49351089  0.82022342  0.86150729     0.09400
C822        C  0.95423480  0.85794034  0.87129910    -0.12800
H823        H  0.91987053  0.91533592  0.90819828     0.13400
H824        H  0.57070991  0.85115866  0.92950013     0.13400
H825        H  0.57206108  0.79401500  0.87755119     0.13400
H826        H  0.92000631  0.86156185  0.85508328     0.13400
C827        C  0.54240273  0.85578253  0.58669988    -0.12800
C828        C  0.99817079  0.88799382  0.57674100     0.09400
C829        C  0.95142426  0.87989619  0.59470533    -0.12800
C830        C  0.95140033  0.84731888  0.62461195    -0.12800
C831        C  0.99813221  0.82148091  0.63727802     0.09400
C832        C  0.54292282  0.82395318  0.61694924    -0.12800
H833        H  0.57777968  0.85649033  0.57136502     0.13400
H834        H  0.91494200  0.90032408  0.58633747     0.13400
H835        H  0.91480728  0.84422060  0.63822008     0.13400
H836        H  0.57850424  0.80026910  0.62372514     0.13400
C837        C  0.95997219  0.14337654  0.91113956    -0.12800
C838        C  0.00496389  0.11094025  0.92042498     0.09400
C839        C  0.54751221  0.11620670  0.90534116    -0.12800
C840        C  0.54723572  0.14750046  0.87489523    -0.12800
C841        C  0.00280624  0.17418266  0.85880760     0.09400
C842        C  0.95901151  0.17492442  0.88081665    -0.12800
H843        H  0.92524987  0.14394657  0.92716256     0.13400
H844        H  0.58289541  0.09221895  0.91234100     0.13400
H845        H  0.58246650  0.14639370  0.85943851     0.13400
H846        H  0.92376352  0.19965878  0.87462120     0.13400
C847        C  0.95781694  0.18162165  0.61394704    -0.12800
C848        C  0.50156776  0.17770292  0.63791759     0.09400
C849        C  0.54799918  0.14931438  0.62645508    -0.12800
C850        C  0.54891128  0.11784788  0.59606549    -0.12800
C851        C  0.50335193  0.11342751  0.57647017     0.09400
C852        C  0.95806892  0.14913410  0.58394762    -0.12800
H853        H  0.92309547  0.20738357  0.62014321     0.13400
H854        H  0.58334893  0.14933985  0.64154012     0.13400
H855        H  0.58485311  0.09500262  0.58873467     0.13400
H856        H  0.92339375  0.15001057  0.56805215     0.13400
C857        C  0.70757205  0.64695050  0.91291382    -0.12800
C858        C  0.75328480  0.61775614  0.92412257     0.09400
C859        C  0.79961810  0.62218092  0.90507843    -0.12800
C860        C  0.79965055  0.65300945  0.87453875    -0.12800
C861        C  0.75343542  0.68069552  0.86252029     0.09400
C862        C  0.70771320  0.67836871  0.88262228    -0.12800
H863        H  0.67132963  0.64462981  0.92718865     0.13400
H864        H  0.83545891  0.59985582  0.91296491     0.13400
H865        H  0.83557065  0.65324073  0.85985515     0.13400
H866        H  0.67165960  0.70021499  0.87490763     0.13400
C867        C  0.80314104  0.62051603  0.59622865    -0.12800
C868        C  0.75841471  0.62050385  0.57544110     0.09400
C869        C  0.71407196  0.65399078  0.58491208    -0.12800
C870        C  0.71363883  0.68490999  0.61543273    -0.12800
C871        C  0.75730480  0.68236880  0.63735276     0.09400
C872        C  0.80251295  0.65086213  0.62695151    -0.12800
H873        H  0.83781740  0.59483788  0.58965062     0.13400
H874        H  0.67924619  0.65523823  0.56914312     0.13400
H875        H  0.67871010  0.70998840  0.62208821     0.13400
H876        H  0.83673723  0.64757916  0.64318743     0.13400
C877        C  0.69749093  0.35580607  0.87210191    -0.12800
C878        C  0.74351034  0.32683669  0.86047943     0.09400
C879        C  0.78899937  0.32967498  0.88057498    -0.12800
C880        C  0.78912340  0.36241068  0.91041335    -0.12800
C881        C  0.74360336  0.39258881  0.92136330     0.09400
C882        C  0.69750702  0.38804358  0.90223605    -0.12800
H883        H  0.66170346  0.35520591  0.85746204     0.13400
H884        H  0.82490878  0.30698319  0.87326852     0.13400
H885        H  0.82518565  0.36457005  0.92471650     0.13400
H886        H  0.66177133  0.41094113  0.90990047     0.13400
C887        C  0.79466025  0.36723144  0.58945582    -0.12800
C888        C  0.74870995  0.39474269  0.57717808     0.09400
C889        C  0.70161337  0.38746144  0.59495782    -0.12800
C890        C  0.70079221  0.35523624  0.62504326    -0.12800
C891        C  0.74702136  0.32889516  0.63806292     0.09400
C892        C  0.79379802  0.33445431  0.61929583    -0.12800
H893        H  0.83157227  0.37159580  0.57625025     0.13400
H894        H  0.66546253  0.40816801  0.58625017     0.13400
H895        H  0.66398143  0.35254017  0.63848333     0.13400
H896        H  0.83015622  0.31394625  0.62756878     0.13400
loop_ 
_geom_bond_atom_site_label_1 
_geom_bond_atom_site_label_2 
_geom_bond_distance 
_geom_bond_site_symmetry_2 
_ccdc_geom_bond_type 
O1           Ni9   1.917   1_554  S
O1           C11   1.281       .  A
O2         Ni233   1.917       .  S
O2           C12   1.282       .  A
O3           Ni9   1.919   1_554  S
O3           C13   1.283       .  A
O4         Ni233   1.918       .  S
O4           C14   1.282       .  A
O5          Ni10   1.919       .  S
O5           C14   1.282       .  A
O6         Ni234   1.907       .  S
O6           C13   1.279       .  A
O7          Ni10   1.905       .  S
O7           C12   1.279       .  A
O8         Ni234   1.927       .  S
O8           C11   1.284       .  A
Ni9         O226   1.920       .  S
Ni9         O228   1.917       .  S
Ni9        Ni234   2.387   1_556  S
Ni10        O230   1.915       .  S
Ni10        O232   1.910       .  S
Ni10       Ni233   2.388       .  S
C11         C216   1.486       .  S
C12         C186   1.474       .  S
C13         C196   1.475       .  S
C14         C209   1.481       .  S
O15        Ni247   1.923   1_545  S
O15         C473   1.283   1_455  A
O16         Ni23   1.913   1_554  S
O16         C474   1.281       .  A
O17        Ni247   1.908       .  S
O17          C27   1.280   1_455  A
O18         Ni23   1.922   1_544  S
O18          C28   1.283       .  A
O19         Ni24   1.920       .  S
O19         C476   1.283       .  A
O20        Ni248   1.920   1_565  S
O20         C475   1.282       .  A
O21         Ni24   1.920   1_565  S
O21          C26   1.282       .  A
O22        Ni248   1.916       .  S
O22          C25   1.282       .  A
Ni23        O239   1.916   1_565  S
Ni23        O241   1.922       .  S
Ni23       Ni472   2.386   1_465  S
Ni24        O244   1.923   1_544  S
Ni24        O246   1.918   1_554  S
Ni24       Ni471   2.386   1_544  S
C25         O463   1.281       .  A
C25         C166   1.480       .  S
C26         O464   1.281       .  A
C26         C156   1.481       .  S
C27         O468   1.282       .  A
C27         C146   1.476       .  S
C28         O467   1.281   1_455  A
C28         C179   1.484       .  S
C29          C31   1.535       .  S
C29          C33   1.528       .  S
C29          C32   1.527       .  S
C29         C134   1.501       .  S
C30          C34   1.531       .  S
C30          C36   1.530       .  S
C30          C35   1.528       .  S
C30         C137   1.501       .  S
C31          C39   1.375       .  A
C31         C482   1.393       .  A
C32          C43   1.370       .  A
C32         C483   1.385       .  A
C33          C47   1.371       .  A
C33         C484   1.386       .  A
C34          C37   1.371       .  A
C34         C479   1.395   1_455  A
C35          C41   1.374       .  A
C35         C480   1.387   1_455  A
C36          C44   1.373       .  A
C36         C481   1.385   1_455  A
C37          N38   1.353       .  A
C37          H50   1.082       .  S
N38         C487   1.369   1_455  A
N38         C142   1.444       .  S
C39         N486   1.359       .  A
C39          H40   1.083       .  S
C41          N42   1.360       .  A
C41          H51   1.082       .  S
N42         C491   1.361   1_455  A
N42         C617   1.441   1_455  S
C43         N490   1.362       .  A
C43          H49   1.080       .  S
C44          N45   1.364       .  A
C44          H46   1.080       .  S
N45         C495   1.367   1_455  A
N45         C176   1.453       .  S
C47         N493   1.361       .  A
C47          H48   1.081       .  S
C52          C54   1.546       .  S
C52          C56   1.540       .  S
C52          C55   1.535       .  S
C52         C129   1.514       .  S
C53          C57   1.541       .  S
C53          C59   1.537       .  S
C53          C58   1.538       .  S
C53         C125   1.508       .  S
C54          C62   1.384       .  A
C54         C505   1.394   1_455  A
C55          C66   1.372       .  A
C55         C506   1.387   1_455  A
C56          C70   1.378       .  A
C56         C507   1.387   1_455  A
C57          C60   1.378       .  A
C57         C502   1.395       .  A
C58          C64   1.379       .  A
C58         C503   1.385       .  A
C59          C67   1.377       .  A
C59         C504   1.386       .  A
C60          N61   1.365       .  A
C60          H73   1.080       .  S
N61         C510   1.359       .  A
N61         C589   1.445       .  S
C62         N509   1.368   1_455  A
C62          H63   1.081       .  S
C64          N65   1.365       .  A
C64          H74   1.081       .  S
N65         C514   1.362       .  A
N65         C597   1.449       .  S
C66         N513   1.362   1_455  A
C66          H72   1.081       .  S
C67          N68   1.364       .  A
C67          H69   1.081       .  S
N68         C518   1.363       .  A
N68         C159   1.447       .  S
C70         N516   1.365   1_455  A
C70          H71   1.081       .  S
C75          C77   1.543       .  S
C75          C79   1.532       .  S
C75          C78   1.533       .  S
C75         C130   1.511       .  S
C76          C80   1.538       .  S
C76          C82   1.531       .  S
C76          C81   1.531       .  S
C76         C126   1.509       .  S
C77          C85   1.379       .  A
C77          C80   1.394       .  A
C78          C89   1.373       .  A
C78          C81   1.389       .  A
C79          C93   1.374       .  A
C79          C82   1.389       .  A
C80          C83   1.380       .  A
C81          C87   1.372       .  A
C82          C90   1.372       .  A
C83          N84   1.364       .  A
C83          H96   1.079       .  S
N84          C85   1.360       .  A
N84         C121   1.448       .  S
C85          H86   1.083       .  S
C87          N88   1.361       .  A
C87          H97   1.081       .  S
N88          C89   1.363       .  A
N88         C189   1.442       .  S
C89          H95   1.081       .  S
C90          N91   1.361       .  A
C90          H92   1.082       .  S
N91          C93   1.362       .  A
N91         C199   1.442       .  S
C93          H94   1.082       .  S
C98         C100   1.540       .  S
C98         C102   1.533       .  S
C98         C101   1.533       .  S
C98         C133   1.501       .  S
C99         C103   1.540       .  S
C99         C105   1.538       .  S
C99         C104   1.537       .  S
C99         C138   1.503       .  S
C100        C108   1.377       .  A
C100        C103   1.394       .  A
C101        C112   1.376       .  A
C101        C104   1.385       .  A
C102        C116   1.377       .  A
C102        C105   1.384       .  A
C103        C106   1.380       .  A
C104        C110   1.378       .  A
C105        C113   1.379       .  A
C106        N107   1.365       .  A
C106        H119   1.080       .  S
N107        C108   1.360       .  A
N107        C122   1.448       .  S
C108        H109   1.083       .  S
C110        N111   1.363       .  A
C110        H120   1.082       .  S
N111        C112   1.362       .  A
N111        C206   1.445       .  S
C112        H118   1.082       .  S
C113        N114   1.364       .  A
C113        H115   1.081       .  S
N114        C116   1.363       .  A
N114        C219   1.449       .  S
C116        H117   1.081       .  S
C121        C122   1.350   1_565  D
C121        H123   1.083       .  S
C122        H124   1.084   1_545  S
C125        C126   1.348       .  D
C125        H127   1.086       .  S
C126        H128   1.086       .  S
C129        C130   1.351       .  D
C129        H131   1.085       .  S
C130        H132   1.086       .  S
C133        C134   1.345       .  D
C133        H135   1.086       .  S
C134        H136   1.086       .  S
C137        C138   1.343       .  D
C137        H139   1.086       .  S
C138        H140   1.086       .  S
C141        N509   1.444       .  S
C141        C142   1.341   1_655  D
C141        H143   1.086       .  S
C142        H592   1.086       .  S
H144        C590   1.083       .  S
C145        C150   1.399       .  A
C145        C594   1.405       .  A
C145        H151   1.083       .  S
C146        C147   1.403   1_655  A
C146        C593   1.404       .  A
C147        C148   1.393       .  A
C147        H152   1.083       .  S
C148        C149   1.406   1_455  A
C148        H153   1.081       .  S
C149        C598   1.409       .  A
C149        N513   1.444       .  S
C150        C597   1.408       .  A
C150        H154   1.080       .  S
C155        C160   1.397       .  A
C155        C604   1.405       .  A
C155        H161   1.083       .  S
C156        C157   1.404       .  A
C156        C603   1.405       .  A
C157        C158   1.398       .  A
C157        H162   1.083       .  S
C158        C159   1.408       .  A
C158        H163   1.081       .  S
C159        C608   1.409       .  A
C160        C607   1.407       .  A
C160        H164   1.081       .  S
C165        C166   1.403       .  A
C165        C170   1.397       .  A
C165        H171   1.083       .  S
C166        C615   1.405       .  A
C167        C168   1.400       .  A
C167        C614   1.403   1_455  A
C167        H172   1.083       .  S
C168        C617   1.408   1_455  A
C168        H173   1.082       .  S
C169        C170   1.410       .  A
C169        C616   1.408       .  A
C169        N490   1.449       .  S
C170        H174   1.080       .  S
C175        C180   1.398       .  A
C175        C624   1.410       .  A
C175        H181   1.081       .  S
C176        C177   1.412       .  A
C176        C623   1.410   1_455  A
C177        C178   1.398       .  A
C177        H182   1.079       .  S
C178        C179   1.403       .  A
C178        H183   1.083       .  S
C179        C628   1.405   1_455  A
C180        C627   1.404       .  A
C180        H184   1.083       .  S
C185        C186   1.404       .  A
C185        C190   1.394       .  A
C185        H191   1.083       .  S
C186        C187   1.403       .  A
C187        C188   1.396       .  A
C187        H192   1.083       .  S
C188        C189   1.408       .  A
C188        H193   1.081       .  S
C189        C190   1.406       .  A
C190        H194   1.081       .  S
C195        C196   1.403       .  A
C195        C200   1.396       .  A
C195        H201   1.083       .  S
C196        C197   1.405       .  A
C197        C198   1.396       .  A
C197        H202   1.083       .  S
C198        C199   1.406       .  A
C198        H203   1.082       .  S
C199        C200   1.407       .  A
C200        H204   1.081       .  S
C205        C206   1.407       .  A
C205        C210   1.399       .  A
C205        H211   1.082       .  S
C206        C207   1.408       .  A
C207        C208   1.399       .  A
C207        H212   1.082       .  S
C208        C209   1.405       .  A
C208        H213   1.083       .  S
C209        C210   1.405       .  A
C210        H214   1.083       .  S
C215        C216   1.406       .  A
C215        C220   1.399       .  A
C215        H221   1.083       .  S
C216        C217   1.405       .  A
C217        C218   1.401       .  A
C217        H222   1.083       .  S
C218        C219   1.409       .  A
C218        H223   1.081       .  S
C219        C220   1.408       .  A
C220        H224   1.081       .  S
O225       Ni233   1.914       .  S
O225        C235   1.281       .  A
O226        C236   1.282       .  A
O227       Ni233   1.921       .  S
O227        C237   1.282       .  A
O228        C238   1.282       .  A
O229       Ni234   1.913   1_556  S
O229        C238   1.280       .  A
O230        C237   1.281       .  A
O231       Ni234   1.922   1_556  S
O231        C236   1.283       .  A
O232        C235   1.280       .  A
C235        C440   1.474       .  S
C236        C410   1.484       .  S
C237        C420   1.481       .  S
C238        C433   1.478       .  S
O239        C697   1.281       .  A
O240       Ni247   1.923       .  S
O240        C698   1.283   1_455  A
O241        C251   1.282       .  A
O242       Ni247   1.909   1_545  S
O242        C252   1.280       .  A
O243       Ni248   1.916       .  S
O243        C700   1.281       .  A
O244        C699   1.283       .  A
O245       Ni248   1.919   1_565  S
O245        C250   1.282       .  A
O246        C249   1.282       .  A
Ni247      Ni696   2.388   1_465  S
Ni248      Ni695   2.386   1_545  S
C249        O687   1.282       .  A
C249        C390   1.482       .  S
C250        O688   1.281       .  A
C250        C380   1.480       .  S
C251        O692   1.281   1_455  A
C251        C370   1.481   1_455  S
C252        O691   1.283   1_455  A
C252        C403   1.478       .  S
C253        C255   1.534       .  S
C253        C257   1.535       .  S
C253        C256   1.534       .  S
C253        C358   1.502       .  S
C254        C258   1.545       .  S
C254        C260   1.535       .  S
C254        C259   1.531       .  S
C254        C361   1.506       .  S
C255        C263   1.375       .  A
C255        C706   1.392       .  A
C256        C267   1.376       .  A
C256        C707   1.387       .  A
C257        C271   1.378       .  A
C257        C708   1.386       .  A
C258        C703   1.394   1_455  A
C258        C261   1.382       .  A
C259        C704   1.384   1_455  A
C259        C265   1.373       .  A
C260        C705   1.387   1_455  A
C260        C268   1.374       .  A
C261        N262   1.368   1_455  A
C261        H274   1.081       .  S
N262        C711   1.354       .  A
N262        C366   1.442       .  S
C263        N710   1.358       .  A
C263        H264   1.083       .  S
C265        N266   1.360       .  A
C265        H275   1.081       .  S
N266        C715   1.363   1_455  A
N266        C841   1.444       .  S
C267        N714   1.363       .  A
C267        H273   1.082       .  S
C268        N269   1.362   1_455  A
C268        H270   1.082       .  S
N269        C719   1.362       .  A
N269        C400   1.444   1_655  S
C271        N717   1.365       .  A
C271        H272   1.081       .  S
C276        C278   1.526       .  S
C276        C280   1.531       .  S
C276        C279   1.532       .  S
C276        C353   1.500       .  S
C277        C281   1.544       .  S
C277        C283   1.533       .  S
C277        C282   1.534       .  S
C277        C349   1.508       .  S
C278        C286   1.369       .  A
C278        C729   1.393   1_455  A
C279        C290   1.375       .  A
C279        C730   1.387   1_455  A
C280        C294   1.373       .  A
C280        C731   1.385   1_455  A
C281        C726   1.395       .  A
C281        C284   1.382       .  A
C282        C727   1.387       .  A
C282        C288   1.375       .  A
C283        C728   1.386       .  A
C283        C291   1.374       .  A
C284        N285   1.366       .  A
C284        H297   1.080       .  S
N285        C734   1.358       .  A
N285        C813   1.446       .  S
C286        N733   1.353       .  A
C286        H287   1.083       .  S
C288        N289   1.362       .  A
C288        H298   1.082       .  S
N289        C738   1.364       .  A
N289        C821   1.446       .  S
C290        N737   1.362   1_455  A
C290        H296   1.082       .  S
C291        N292   1.362       .  A
C291        H293   1.081       .  S
N292        C742   1.363       .  A
N292        C383   1.446       .  S
C294        N740   1.363   1_455  A
C294        H295   1.080       .  S
C299        C301   1.528       .  S
C299        C303   1.532       .  S
C299        C302   1.532       .  S
C299        C354   1.499       .  S
C300        C304   1.548       .  S
C300        C306   1.537       .  S
C300        C305   1.538       .  S
C300        C350   1.507       .  S
C301        C309   1.371       .  A
C301        C304   1.393       .  A
C302        C313   1.375       .  A
C302        C305   1.386       .  A
C303        C317   1.374       .  A
C303        C306   1.386       .  A
C304        C307   1.385       .  A
C305        C311   1.379       .  A
C306        C314   1.376       .  A
C307        N308   1.369       .  A
C307        H320   1.080       .  S
N308        C309   1.353       .  A
N308        C345   1.444       .  S
C309        H310   1.083       .  S
C311        N312   1.364       .  A
C311        H321   1.081       .  S
N312        C313   1.363       .  A
N312        C413   1.448       .  S
C313        H319   1.081       .  S
C314        N315   1.364       .  A
C314        H316   1.081       .  S
N315        C317   1.364       .  A
N315        C423   1.448       .  S
C317        H318   1.081       .  S
C322        C324   1.529       .  S
C322        C326   1.528       .  S
C322        C325   1.529       .  S
C322        C357   1.503       .  S
C323        C327   1.548       .  S
C323        C329   1.532       .  S
C323        C328   1.538       .  S
C323        C362   1.506       .  S
C324        C332   1.369       .  A
C324        C327   1.395       .  A
C325        C336   1.370       .  A
C325        C328   1.387       .  A
C326        C340   1.372       .  A
C326        C329   1.385       .  A
C327        C330   1.385       .  A
C328        C334   1.379       .  A
C329        C337   1.373       .  A
C330        N331   1.369       .  A
C330        H343   1.081       .  S
N331        C332   1.354       .  A
N331        C346   1.443       .  S
C332        H333   1.083       .  S
C334        N335   1.364       .  A
C334        H344   1.081       .  S
N335        C336   1.362       .  A
N335        C430   1.446       .  S
C336        H342   1.081       .  S
C337        N338   1.361       .  A
C337        H339   1.081       .  S
N338        C340   1.361       .  A
N338        C443   1.441       .  S
C340        H341   1.082       .  S
C345        C346   1.341   1_565  D
C345        H347   1.086       .  S
C346        H348   1.085   1_545  S
C349        C350   1.351       .  D
C349        H351   1.086       .  S
C350        H352   1.086       .  S
C353        C354   1.336       .  D
C353        H355   1.086       .  S
C354        H356   1.086       .  S
C357        C358   1.340       .  D
C357        H359   1.086       .  S
C358        H360   1.086       .  S
C361        C362   1.352       .  D
C361        H363   1.086       .  S
C362        H364   1.086       .  S
C365        N733   1.442       .  S
C365        C366   1.341   1_455  D
C365        H367   1.083       .  S
C366        H816   1.083       .  S
H368        C814   1.085       .  S
C369        C818   1.404       .  A
C369        C374   1.399       .  A
C369        H375   1.083       .  S
C370        C817   1.405       .  A
C370        C371   1.405   1_655  A
C371        C372   1.400       .  A
C371        H376   1.083       .  S
C372        C373   1.409   1_455  A
C372        H377   1.082       .  S
C373        C822   1.406       .  A
C373        N737   1.446       .  S
C374        C821   1.409       .  A
C374        H378   1.081       .  S
C379        C828   1.403   1_455  A
C379        C384   1.398       .  A
C379        H385   1.083       .  S
C380        C827   1.405       .  A
C380        C381   1.404       .  A
C381        C382   1.396       .  A
C381        H386   1.083       .  S
C382        C383   1.408       .  A
C382        H387   1.081       .  S
C383        C832   1.408       .  A
C384        C831   1.411   1_455  A
C384        H388   1.080       .  S
C389        C390   1.405       .  A
C389        C394   1.400       .  A
C389        H395   1.083       .  S
C390        C839   1.405       .  A
C391        C838   1.405       .  A
C391        C392   1.397       .  A
C391        H396   1.083       .  S
C392        C841   1.408       .  A
C392        H397   1.081       .  S
C393        C840   1.408       .  A
C393        C394   1.409       .  A
C393        N714   1.449       .  S
C394        H398   1.081       .  S
C399        C848   1.408       .  A
C399        C404   1.399       .  A
C399        H405   1.081       .  S
C400        C847   1.408   1_455  A
C400        C401   1.406       .  A
C401        C402   1.395       .  A
C401        H406   1.081       .  S
C402        C403   1.404       .  A
C402        H407   1.083       .  S
C403        C852   1.404   1_455  A
C404        C851   1.406       .  A
C404        H408   1.083       .  S
C409        C410   1.404       .  A
C409        C414   1.399       .  A
C409        H415   1.083       .  S
C410        C411   1.406       .  A
C411        C412   1.400       .  A
C411        H416   1.083       .  S
C412        C413   1.408       .  A
C412        H417   1.082       .  S
C413        C414   1.408       .  A
C414        H418   1.081       .  S
C419        C420   1.404       .  A
C419        C424   1.399       .  A
C419        H425   1.083       .  S
C420        C421   1.404       .  A
C421        C422   1.397       .  A
C421        H426   1.083       .  S
C422        C423   1.408       .  A
C422        H427   1.081       .  S
C423        C424   1.409       .  A
C424        H428   1.081       .  S
C429        C430   1.407       .  A
C429        C434   1.399       .  A
C429        H435   1.081       .  S
C430        C431   1.409       .  A
C431        C432   1.396       .  A
C431        H436   1.081       .  S
C432        C433   1.402       .  A
C432        H437   1.083       .  S
C433        C434   1.406       .  A
C434        H438   1.083       .  S
C439        C440   1.403       .  A
C439        C444   1.396       .  A
C439        H445   1.083       .  S
C440        C441   1.404       .  A
C441        C442   1.394       .  A
C441        H446   1.083       .  S
C442        C443   1.406       .  A
C442        H447   1.081       .  S
C443        C444   1.407       .  A
C444        H448   1.081       .  S
O449       Ni457   1.904   1_554  S
O449        C459   1.279       .  A
O450       Ni681   1.926       .  S
O450        C460   1.284       .  A
O451       Ni457   1.925   1_554  S
O451        C461   1.283       .  A
O452       Ni681   1.911       .  S
O452        C462   1.280       .  A
O453       Ni458   1.916       .  S
O453        C462   1.282       .  A
O454       Ni682   1.919   1_554  S
O454        C461   1.282       .  A
O455       Ni458   1.914       .  S
O455        C460   1.281       .  A
O456       Ni682   1.916   1_554  S
O456        C459   1.282       .  A
Ni457       O674   1.910       .  S
Ni457       O676   1.921       .  S
Ni457      Ni682   2.387       .  S
Ni458       O678   1.913       .  S
Ni458       O680   1.918       .  S
Ni458      Ni681   2.387       .  S
C459        C664   1.474       .  S
C460        C634   1.485       .  S
C461        C644   1.486       .  S
C462        C657   1.475       .  S
O463       Ni695   1.916   1_545  S
O464       Ni471   1.916   1_554  S
O465       Ni695   1.922       .  S
O465        C475   1.283       .  A
O466       Ni471   1.919   1_544  S
O466        C476   1.282       .  A
O467       Ni472   1.916   1_554  S
O468       Ni696   1.919   1_565  S
O469       Ni472   1.924   1_564  S
O469        C474   1.283   1_655  A
O470       Ni696   1.910       .  S
O470        C473   1.280       .  A
Ni471       O687   1.920   1_565  S
Ni471       O689   1.914       .  S
Ni472       O692   1.916   1_545  S
Ni472       O694   1.919       .  S
C473        C614   1.476       .  S
C474        C604   1.481       .  S
C475        C594   1.484       .  S
C476        C627   1.483       .  S
C477        C479   1.549       .  S
C477        C481   1.540       .  S
C477        C480   1.538       .  S
C477        C582   1.514       .  S
C478        C482   1.541       .  S
C478        C484   1.542       .  S
C478        C483   1.539       .  S
C478        C585   1.508       .  S
C479        C487   1.386       .  A
C480        C491   1.376       .  A
C481        C495   1.378       .  A
C482        C485   1.379       .  A
C483        C489   1.378       .  A
C484        C492   1.381       .  A
C485        N486   1.365       .  A
C485        H498   1.080       .  S
N486        C590   1.445       .  S
C487        H488   1.081       .  S
C489        N490   1.366       .  A
C489        H499   1.081       .  S
C491        H497   1.082       .  S
C492        N493   1.367       .  A
C492        H494   1.082       .  S
N493        C624   1.449       .  S
C495        H496   1.080       .  S
C500        C502   1.537       .  S
C500        C504   1.532       .  S
C500        C503   1.530       .  S
C500        C577   1.503       .  S
C501        C505   1.533       .  S
C501        C507   1.528       .  S
C501        C506   1.529       .  S
C501        C573   1.500       .  S
C502        C510   1.376       .  A
C503        C514   1.373       .  A
C504        C518   1.374       .  A
C505        C508   1.372       .  A
C506        C512   1.375       .  A
C507        C515   1.373       .  A
C508        N509   1.354       .  A
C508        H521   1.082       .  S
C510        H511   1.083       .  S
C512        N513   1.362       .  A
C512        H522   1.081       .  S
C514        H520   1.080       .  S
C515        N516   1.362       .  A
C515        H517   1.081       .  S
N516        C607   1.447   1_655  S
C518        H519   1.081       .  S
C523        C525   1.542       .  S
C523        C527   1.533       .  S
C523        C526   1.535       .  S
C523        C578   1.503       .  S
C524        C528   1.535       .  S
C524        C530   1.539       .  S
C524        C529   1.537       .  S
C524        C574   1.504       .  S
C525        C533   1.378       .  A
C525        C528   1.394       .  A
C526        C537   1.376       .  A
C526        C529   1.384       .  A
C527        C541   1.376       .  A
C527        C530   1.384       .  A
C528        C531   1.376       .  A
C529        C535   1.378       .  A
C530        C538   1.380       .  A
C531        N532   1.364       .  A
C531        H544   1.079       .  S
N532        C533   1.361       .  A
N532        C569   1.446       .  S
C533        H534   1.083       .  S
C535        N536   1.364       .  A
C535        H545   1.080       .  S
N536        C537   1.365       .  A
N536        C637   1.451       .  S
C537        H543   1.081       .  S
C538        N539   1.364       .  A
C538        H540   1.081       .  S
N539        C541   1.362       .  A
N539        C647   1.449       .  S
C541        H542   1.082       .  S
C546        C548   1.543       .  S
C546        C550   1.530       .  S
C546        C549   1.532       .  S
C546        C581   1.511       .  S
C547        C551   1.535       .  S
C547        C553   1.531       .  S
C547        C552   1.534       .  S
C547        C586   1.509       .  S
C548        C556   1.378       .  A
C548        C551   1.393       .  A
C549        C560   1.373       .  A
C549        C552   1.391       .  A
C550        C564   1.370       .  A
C550        C553   1.387       .  A
C551        C554   1.377       .  A
C552        C558   1.373       .  A
C553        C561   1.372       .  A
C554        N555   1.362       .  A
C554        H567   1.079       .  S
N555        C556   1.361       .  A
N555        C570   1.445       .  S
C556        H557   1.083       .  S
C558        N559   1.362       .  A
C558        H568   1.082       .  S
N559        C560   1.362       .  A
N559        C654   1.442       .  S
C560        H566   1.082       .  S
C561        N562   1.363       .  A
C561        H563   1.081       .  S
N562        C564   1.364       .  A
N562        C667   1.445       .  S
C564        H565   1.080       .  S
C569        C570   1.351   1_565  D
C569        H571   1.083   1_565  S
C570        H572   1.083       .  S
C573        C574   1.341       .  D
C573        H575   1.086       .  S
C574        H576   1.086       .  S
C577        C578   1.346       .  D
C577        H579   1.086       .  S
C578        H580   1.086       .  S
C581        C582   1.350       .  D
C581        H583   1.086       .  S
C582        H584   1.086       .  S
C585        C586   1.345       .  D
C585        H587   1.086       .  S
C586        H588   1.086       .  S
C589        C590   1.348       .  D
C589        H591   1.083       .  S
C593        C598   1.399       .  A
C593        H599   1.083       .  S
C594        C595   1.404       .  A
C595        C596   1.399       .  A
C595        H600   1.083       .  S
C596        C597   1.410       .  A
C596        H601   1.081       .  S
C598        H602   1.081       .  S
C603        C608   1.398       .  A
C603        H609   1.083       .  S
C604        C605   1.403   1_455  A
C605        C606   1.400       .  A
C605        H610   1.083       .  S
C606        C607   1.410   1_655  A
C606        H611   1.081       .  S
C608        H612   1.081       .  S
C613        C614   1.405       .  A
C613        C618   1.395       .  A
C613        H619   1.083       .  S
C615        C616   1.398       .  A
C615        H620   1.083       .  S
C616        H621   1.080       .  S
C617        C618   1.404       .  A
C618        H622   1.082       .  S
C623        C628   1.399       .  A
C623        H629   1.080       .  S
C624        C625   1.408       .  A
C625        C626   1.400       .  A
C625        H630   1.081       .  S
C626        C627   1.406       .  A
C626        H631   1.083       .  S
C628        H632   1.083       .  S
C633        C634   1.405       .  A
C633        C638   1.398       .  A
C633        H639   1.083       .  S
C634        C635   1.405       .  A
C635        C636   1.401       .  A
C635        H640   1.083       .  S
C636        C637   1.410       .  A
C636        H641   1.081       .  S
C637        C638   1.409       .  A
C638        H642   1.080       .  S
C643        C644   1.406       .  A
C643        C648   1.402       .  A
C643        H649   1.083       .  S
C644        C645   1.405       .  A
C645        C646   1.399       .  A
C645        H650   1.083       .  S
C646        C647   1.409       .  A
C646        H651   1.081       .  S
C647        C648   1.409       .  A
C648        H652   1.081       .  S
C653        C654   1.407       .  A
C653        C658   1.396       .  A
C653        H659   1.081       .  S
C654        C655   1.407       .  A
C655        C656   1.397       .  A
C655        H660   1.082       .  S
C656        C657   1.404       .  A
C656        H661   1.083       .  S
C657        C658   1.404       .  A
C658        H662   1.083       .  S
C663        C664   1.403       .  A
C663        C668   1.392       .  A
C663        H669   1.083       .  S
C664        C665   1.403       .  A
C665        C666   1.397       .  A
C665        H670   1.083       .  S
C666        C667   1.410       .  A
C666        H671   1.080       .  S
C667        C668   1.407       .  A
C668        H672   1.079       .  S
O673       Ni681   1.923       .  S
O673        C683   1.283       .  A
O674        C684   1.280       .  A
O675       Ni681   1.913       .  S
O675        C685   1.281       .  A
O676        C686   1.283       .  A
O677       Ni682   1.921       .  S
O677        C686   1.282       .  A
O678        C685   1.281       .  A
O679       Ni682   1.913       .  S
O679        C684   1.281       .  A
O680        C683   1.282       .  A
C683        C888   1.485       .  S
C684        C858   1.475       .  S
C685        C868   1.475       .  S
C686        C881   1.484       .  S
O688       Ni695   1.914       .  S
O689        C699   1.281       .  A
O690       Ni695   1.923   1_545  S
O690        C700   1.283       .  A
O691       Ni696   1.922       .  S
O693       Ni696   1.913   1_565  S
O693        C698   1.281       .  A
O694        C697   1.282   1_655  A
C697        C838   1.479       .  S
C698        C828   1.482       .  S
C699        C818   1.481       .  S
C700        C851   1.483       .  S
C701        C703   1.529       .  S
C701        C705   1.533       .  S
C701        C704   1.532       .  S
C701        C806   1.501       .  S
C702        C706   1.543       .  S
C702        C708   1.535       .  S
C702        C707   1.538       .  S
C702        C809   1.509       .  S
C703        C711   1.370       .  A
C704        C715   1.375       .  A
C705        C719   1.376       .  A
C706        C709   1.381       .  A
C707        C713   1.378       .  A
C708        C716   1.375       .  A
C709        N710   1.366       .  A
C709        H722   1.080       .  S
N710        C814   1.446       .  S
C711        H712   1.083       .  S
C713        N714   1.365       .  A
C713        H723   1.081       .  S
C715        H721   1.081       .  S
C716        N717   1.363       .  A
C716        H718   1.081       .  S
N717        C848   1.449       .  S
C719        H720   1.082       .  S
C724        C726   1.538       .  S
C724        C728   1.533       .  S
C724        C727   1.535       .  S
C724        C801   1.507       .  S
C725        C729   1.547       .  S
C725        C731   1.537       .  S
C725        C730   1.536       .  S
C725        C797   1.508       .  S
C726        C734   1.375       .  A
C727        C738   1.376       .  A
C728        C742   1.376       .  A
C729        C732   1.383       .  A
C730        C736   1.376       .  A
C731        C739   1.377       .  A
C732        N733   1.368   1_655  A
C732        H745   1.081       .  S
C734        H735   1.083       .  S
C736        N737   1.363       .  A
C736        H746   1.082       .  S
C738        H744   1.081       .  S
C739        N740   1.365       .  A
C739        H741   1.080       .  S
N740        C831   1.450       .  S
C742        H743   1.081       .  S
C747        C749   1.535       .  S
C747        C751   1.530       .  S
C747        C750   1.529       .  S
C747        C802   1.507       .  S
C748        C752   1.546       .  S
C748        C754   1.533       .  S
C748        C753   1.534       .  S
C748        C798   1.510       .  S
C749        C757   1.372       .  A
C749        C752   1.396       .  A
C750        C761   1.371       .  A
C750        C753   1.386       .  A
C751        C765   1.373       .  A
C751        C754   1.387       .  A
C752        C755   1.383       .  A
C753        C759   1.374       .  A
C754        C762   1.374       .  A
C755        N756   1.368       .  A
C755        H768   1.081       .  S
N756        C757   1.356       .  A
N756        C793   1.445       .  S
C757        H758   1.083       .  S
C759        N760   1.363       .  A
C759        H769   1.081       .  S
N760        C761   1.362       .  A
N760        C861   1.444       .  S
C761        H767   1.081       .  S
C762        N763   1.361       .  A
C762        H764   1.081       .  S
N763        C765   1.362       .  A
N763        C871   1.442       .  S
C765        H766   1.082       .  S
C770        C772   1.529       .  S
C770        C774   1.529       .  S
C770        C773   1.531       .  S
C770        C805   1.501       .  S
C771        C775   1.547       .  S
C771        C777   1.543       .  S
C771        C776   1.540       .  S
C771        C810   1.509       .  S
C772        C780   1.372       .  A
C772        C775   1.392       .  A
C773        C784   1.373       .  A
C773        C776   1.386       .  A
C774        C788   1.372       .  A
C774        C777   1.386       .  A
C775        C778   1.384       .  A
C776        C782   1.379       .  A
C777        C785   1.381       .  A
C778        N779   1.368       .  A
C778        H791   1.080       .  S
N779        C780   1.355       .  A
N779        C794   1.445       .  S
C780        H781   1.084       .  S
C782        N783   1.365       .  A
C782        H792   1.081       .  S
N783        C784   1.363       .  A
N783        C878   1.449       .  S
C784        H790   1.081       .  S
C785        N786   1.368       .  A
C785        H787   1.081       .  S
N786        C788   1.362       .  A
N786        C891   1.451       .  S
C788        H789   1.081       .  S
C793        C794   1.344   1_565  D
C793        H795   1.086   1_565  S
C794        H796   1.086       .  S
C797        C798   1.353       .  D
C797        H799   1.086       .  S
C798        H800   1.086       .  S
C801        C802   1.344       .  D
C801        H803   1.086       .  S
C802        H804   1.086       .  S
C805        C806   1.338       .  D
C805        H807   1.086       .  S
C806        H808   1.086       .  S
C809        C810   1.348       .  D
C809        H811   1.086       .  S
C810        H812   1.086       .  S
C813        C814   1.347       .  D
C813        H815   1.084       .  S
C817        C822   1.397       .  A
C817        H823   1.083       .  S
C818        C819   1.405       .  A
C819        C820   1.398       .  A
C819        H824   1.083       .  S
C820        C821   1.407       .  A
C820        H825   1.082       .  S
C822        H826   1.081       .  S
C827        C832   1.399       .  A
C827        H833   1.083       .  S
C828        C829   1.405       .  A
C829        C830   1.398       .  A
C829        H834   1.083       .  S
C830        C831   1.409       .  A
C830        H835   1.080       .  S
C832        H836   1.081       .  S
C837        C838   1.404   1_655  A
C837        C842   1.397       .  A
C837        H843   1.083       .  S
C839        C840   1.398       .  A
C839        H844   1.083       .  S
C840        H845   1.081       .  S
C841        C842   1.407   1_455  A
C842        H846   1.081       .  S
C847        C852   1.399       .  A
C847        H853   1.082       .  S
C848        C849   1.409       .  A
C849        C850   1.399       .  A
C849        H854   1.080       .  S
C850        C851   1.404       .  A
C850        H855   1.083       .  S
C852        H856   1.083       .  S
C857        C858   1.403       .  A
C857        C862   1.395       .  A
C857        H863   1.083       .  S
C858        C859   1.404       .  A
C859        C860   1.396       .  A
C859        H864   1.083       .  S
C860        C861   1.407       .  A
C860        H865   1.081       .  S
C861        C862   1.408       .  A
C862        H866   1.081       .  S
C867        C868   1.404       .  A
C867        C872   1.395       .  A
C867        H873   1.083       .  S
C868        C869   1.403       .  A
C869        C870   1.396       .  A
C869        H874   1.083       .  S
C870        C871   1.407       .  A
C870        H875   1.082       .  S
C871        C872   1.406       .  A
C872        H876   1.081       .  S
C877        C878   1.409       .  A
C877        C882   1.401       .  A
C877        H883   1.081       .  S
C878        C879   1.409       .  A
C879        C880   1.398       .  A
C879        H884   1.081       .  S
C880        C881   1.404       .  A
C880        H885   1.083       .  S
C881        C882   1.406       .  A
C882        H886   1.083       .  S
C887        C888   1.404       .  A
C887        C892   1.399       .  A
C887        H893   1.083       .  S
C888        C889   1.406       .  A
C889        C890   1.399       .  A
C889        H894   1.083       .  S
C890        C891   1.408       .  A
C890        H895   1.081       .  S
C891        C892   1.412       .  A
C892        H896   1.080       .  S
