geometry optimzed in LAMMPS
_audit_creation_date              2020-12-01 
_audit_creation_method            'lammps2cif' 
_symmetry_space_group_name_H-M    'P1' 
_symmetry_Int_Tables_number       1 
_symmetry_cell_setting            triclinic 
loop_ 
_symmetry_equiv_pos_as_xyz 
  x,y,z 
_cell_length_a                    37.4079471 
_cell_length_b                    37.37702902060934 
_cell_length_c                    26.961341693956022 
_cell_angle_alpha                 88.59801402346466 
_cell_angle_beta                  90.4443760783529 
_cell_angle_gamma                 89.974607566268 
loop_ 
_atom_site_label 
_atom_site_type_symbol 
_atom_site_fract_x 
_atom_site_fract_y 
_atom_site_fract_z 
_atom_site_charge 
O1          O  0.33320579  0.03048869  0.05581618    -0.73000
O2          O  0.33310027  0.03044447  0.40693692    -0.74000
O3          O  0.27970662  0.03187181  0.48083482    -0.62600
O4          O  0.38682082  0.02923389  0.98198020    -0.71000
O5          O  0.38575952  0.96980285  0.98388350    -0.70600
O6          O  0.27858656  0.97266626  0.48326145    -0.61800
O7          O  0.33176167  0.97102399  0.40908508    -0.74400
O8          O  0.33226085  0.97106103  0.05780462    -0.73100
Cu9        Cu  0.33333700  0.03256498  0.48133313     1.04600
Cu10       Cu  0.33203197  0.96903191  0.98356936     1.04300
C11         C  0.33264552  0.00075281  0.08022876     0.93200
C12         C  0.33218811  0.00069509  0.38459776     0.92300
C13         C  0.26200088  0.00254674  0.98173551     0.84500
C14         C  0.40323208  0.99919237  0.48333599     0.90700
O15         O  0.33166876  0.03025550  0.30575512    -0.73000
O16         O  0.33236662  0.03032566  0.15707797    -0.74000
O17         O  0.27814404  0.03023988  0.23036383    -0.62600
O18         O  0.38566521  0.02974400  0.23271762    -0.71000
O19         O  0.38518673  0.97030036  0.23456754    -0.70600
O20         O  0.27817408  0.97103898  0.23267542    -0.61800
O21         O  0.33197089  0.97089381  0.15897256    -0.74400
O22         O  0.33150953  0.97081833  0.30790413    -0.73100
Cu23       Cu  0.33194688  0.03222863  0.23136486     1.04600
Cu24       Cu  0.33167536  0.96870477  0.23354217     1.04300
C25         C  0.33172104  0.00057797  0.33024036     0.93200
C26         C  0.33233532  0.00065107  0.13460462     0.90100
C27         C  0.26105608  0.00058459  0.23130198     0.84500
C28         C  0.40229697  0.99984866  0.23425662     0.90700
O29         O  0.89055670  0.64387783  0.00332958    -0.73000
O30         O  0.89144417  0.53653708  0.00649123    -0.74000
O31         O  0.89089413  0.58973005  0.07921518    -0.62600
O32         O  0.89100256  0.59030511  0.43038649    -0.71000
O33         O  0.95037146  0.59056460  0.43095483    -0.70600
O34         O  0.95026744  0.59015161  0.07979424    -0.61800
O35         O  0.95083807  0.53698871  0.00714215    -0.74400
O36         O  0.94991125  0.64408005  0.50370969    -0.73100
Cu37       Cu  0.88884898  0.59013600  0.00480632     1.04600
Cu38       Cu  0.95247816  0.59052159  0.50541017     1.04300
C39         C  0.92004665  0.66107191  0.00280525     0.93200
C40         C  0.92129570  0.51990733  0.00761070     0.92300
C41         C  0.92059158  0.58948642  0.10291975     0.84500
C42         C  0.92067539  0.59026644  0.40725005     0.90700
O43         O  0.89095148  0.58806431  0.18042067    -0.73000
O44         O  0.89097015  0.58907566  0.32918664    -0.74000
O45         O  0.89076929  0.64189881  0.25196291    -0.62600
O46         O  0.89138187  0.53473785  0.25747092    -0.71000
O47         O  0.95076963  0.53517381  0.25819508    -0.70600
O48         O  0.94996675  0.64217937  0.25218367    -0.61800
O49         O  0.95033836  0.58957095  0.32975127    -0.74400
O50         O  0.95032936  0.58827549  0.18097517    -0.73100
Cu51       Cu  0.88893385  0.58837876  0.25477348     1.04600
Cu52       Cu  0.95241836  0.58875970  0.25534442     1.04300
C53         C  0.92062354  0.58850312  0.15728522     0.93200
C54         C  0.92065901  0.58965708  0.35288108     0.92300
C55         C  0.92025465  0.65904651  0.25049720     0.84500
C56         C  0.92121932  0.51808852  0.25870835     0.90700
O57         O  0.51359768  0.96820076  0.41367237    -0.73000
O58         O  0.51154353  0.96838562  0.06251007    -0.74000
O59         O  0.45894306  0.96872119  0.98592942    -0.62600
O60         O  0.56639008  0.96780732  0.49090724    -0.71000
O61         O  0.56683200  0.02722993  0.48678310    -0.70600
O62         O  0.45955432  0.02816012  0.98452940    -0.61800
O63         O  0.51278771  0.02781894  0.06021530    -0.74400
O64         O  0.51339925  0.02764500  0.41147311    -0.73100
Cu65       Cu  0.51261440  0.96620995  0.98828617     1.04600
Cu66       Cu  0.51321609  0.02975286  0.48567990     1.04300
C67         C  0.51329668  0.99790655  0.38915564     0.93200
C68         C  0.51204793  0.99815804  0.08476769     0.92300
C69         C  0.44242599  0.99859900  0.48459969     0.84500
C70         C  0.58342744  0.99746833  0.98974789     0.90700
O71         O  0.51162351  0.96825537  0.31235072    -0.73000
O72         O  0.51174974  0.96855162  0.16359451    -0.74000
O73         O  0.56516721  0.96778399  0.23925413    -0.62600
O74         O  0.45794687  0.96935357  0.23695262    -0.71000
O75         O  0.45873895  0.02879355  0.23535542    -0.70600
O76         O  0.56586903  0.02717818  0.23622922    -0.61800
O77         O  0.51214838  0.02799567  0.16146629    -0.74400
O78         O  0.51273831  0.02768750  0.31036565    -0.73100
Cu79       Cu  0.51155973  0.96640104  0.23805741     1.04600
Cu80       Cu  0.51237491  0.02998976  0.23578972     1.04300
C81         C  0.51256182  0.99794192  0.33477665     0.93200
C82         C  0.51193545  0.99825092  0.13912229     0.92300
C83         C  0.58241121  0.99728253  0.23872455     0.84500
C84         C  0.44147196  0.99932550  0.23562800     0.90700
O85         O  0.92389016  0.94628091  0.04647216    -0.73000
O86         O  0.92339436  0.05316530  0.04841970    -0.74000
O87         O  0.86993049  0.99941492  0.04893383    -0.62600
O88         O  0.97733127  0.00022961  0.04566420    -0.71000
O89         O  0.97545478  0.00312002  0.46347087    -0.70600
O90         O  0.86857089  0.00055882  0.46649974    -0.61800
O91         O  0.92095687  0.05540260  0.46617131    -0.74400
O92         O  0.92328188  0.94824747  0.46406026    -0.73100
Cu93       Cu  0.92370564  0.99967539  0.05025096     1.04600
Cu94       Cu  0.92200622  0.00190776  0.46219239     1.04300
C95         C  0.92342726  0.93033038  0.00513640     0.93200
C96         C  0.92189176  0.07124064  0.00763962     0.92300
C97         C  0.85221740  0.99982196  0.00821000     0.84500
C98         C  0.99334780  0.00197862  0.00399575     0.90700
O99         O  0.86763236  0.99766482  0.29435458    -0.73000
O100        O  0.97547110  0.99719007  0.29475648    -0.74000
O101        O  0.92187679  0.05069425  0.29507346    -0.62600
O102        O  0.92128819  0.94398267  0.29500207    -0.71000
O103        O  0.92129062  0.94548614  0.21280242    -0.70600
O104        O  0.92136555  0.05262061  0.21284580    -0.61800
O105        O  0.97461691  0.99912488  0.21256248    -0.74400
O106        O  0.86808787  0.99892423  0.21207873    -0.73100
Cu107      Cu  0.92157118  0.99732509  0.29772259     1.04600
Cu108      Cu  0.92132353  0.99908195  0.20976254     1.04300
C109        C  0.85091618  0.99791544  0.25276804     0.93200
C110        C  0.99206514  0.99827035  0.25345917     0.92300
C111        C  0.92167036  0.06863002  0.25415117     0.84500
C112        C  0.92100993  0.92774900  0.25394569     0.90700
O113        O  0.89253822  0.41030039  0.08719660    -0.73000
O114        O  0.89254311  0.40978362  0.43829851    -0.74000
O115        O  0.89264931  0.35686542  0.51505681    -0.62600
O116        O  0.89207997  0.46373127  0.01032106    -0.71000
O117        O  0.95147225  0.46408072  0.01084325    -0.70600
O118        O  0.95191411  0.35686853  0.01600664    -0.61800
O119        O  0.95191863  0.40982575  0.43906146    -0.74400
O120        O  0.95191230  0.41063490  0.08775587    -0.73100
Cu121      Cu  0.89041292  0.41023859  0.51269821     1.04600
Cu122      Cu  0.95388515  0.41042840  0.01343281     1.04300
C123        C  0.92225556  0.41009674  0.11090172     0.93200
C124        C  0.92226619  0.40947964  0.41528149     0.92300
C125        C  0.92228940  0.33984174  0.01671684     0.84500
C126        C  0.92164766  0.48076311  0.00964948     0.90700
O127        O  0.95208124  0.40886228  0.33791406    -0.73000
O128        O  0.95205498  0.40882209  0.18901134    -0.74000
O129        O  0.95146023  0.46231635  0.26150610    -0.62600
O130        O  0.95269511  0.35489447  0.26559457    -0.71000
O131        O  0.89356081  0.35461587  0.26451118    -0.70600
O132        O  0.89207162  0.46178964  0.26105027    -0.61800
O133        O  0.89268588  0.40852910  0.18843737    -0.74400
O134        O  0.89271317  0.40823340  0.33717469    -0.73100
Cu135      Cu  0.95416829  0.40870051  0.26351868     1.04600
Cu136      Cu  0.89071006  0.40820570  0.26277836     1.04300
C137        C  0.92236249  0.40878830  0.36094842     0.93200
C138        C  0.92234309  0.40910244  0.16529631     0.92300
C139        C  0.92159562  0.47892004  0.26056441     0.84500
C140        C  0.92318439  0.33764113  0.26604707     0.90700
C141        C  0.92263508  0.10810438  0.25536126    -0.12100
C142        C  0.90751393  0.13017537  0.21735463     0.03400
C143        C  0.90921738  0.16739231  0.22098773    -0.12600
C144        C  0.92573688  0.18313328  0.26183173     0.18300
C145        C  0.94045776  0.16130240  0.29988995    -0.09600
C146        C  0.93888630  0.12416294  0.29641927    -0.02600
H147        H  0.89730124  0.18420784  0.19200549     0.04800
C148        C  0.92594757  0.22240851  0.26488407     0.20300
H149        H  0.95053117  0.10777119  0.32606187     0.10000
C150        C  0.89462570  0.23983408  0.27872647    -0.16000
C151        C  0.89316510  0.27714135  0.28059125     0.03000
C152        C  0.92356153  0.29785253  0.26744488    -0.11300
C153        C  0.95518822  0.27994300  0.25453206    -0.01300
C154        C  0.95653755  0.24258513  0.25324913    -0.06500
H155        H  0.87117820  0.22421869  0.28836944     0.06000
H156        H  0.97889877  0.29499617  0.24455047     0.09400
Br157      Br  0.96211672  0.18098337  0.35780733    -0.06200
Br158      Br  0.88210718  0.11166999  0.16134867    -0.03100
Br159      Br  0.84910245  0.29713821  0.30347403    -0.00300
Br160      Br  0.00038211  0.22017739  0.23437084    -0.04700
C161        C  0.92215921  0.11071352  0.00888029    -0.12100
C162        C  0.90469102  0.13232566  0.47227324     0.03400
C163        C  0.90588233  0.16956369  0.47546411    -0.12600
C164        C  0.92443568  0.18576415  0.01438323     0.18300
C165        C  0.94155876  0.16442670  0.05098254    -0.09600
C166        C  0.94030525  0.12721575  0.04806254    -0.02600
H167        H  0.89234036  0.18603019  0.44750343     0.04800
C168        C  0.92441910  0.22501170  0.51660918     0.20300
H169        H  0.95380500  0.11112340  0.07645987     0.10000
C170        C  0.89458183  0.24246134  0.03484710    -0.16000
C171        C  0.89329188  0.27978265  0.03625056     0.03000
C172        C  0.92252847  0.30026685  0.01835996    -0.11300
C173        C  0.95269622  0.28236940  0.50085649    -0.01300
C174        C  0.95386970  0.24508189  0.49992765    -0.06500
H175        H  0.87206965  0.22689233  0.04829362     0.06000
H176        H  0.97544237  0.29739769  0.48705829     0.09400
Br177      Br  0.96647734  0.18501846  0.10580087    -0.06200
Br178      Br  0.87709625  0.11308127  0.41877363    -0.03100
Br179      Br  0.85152295  0.30035922  0.06532704    -0.00300
Br180      Br  0.99597225  0.22272108  0.47488662    -0.04700
C181        C  0.62177685  0.99707632  0.24110815    -0.12100
C182        C  0.64070456  0.97369179  0.27376977     0.03400
C183        C  0.67803009  0.97498910  0.27564355    -0.12600
C184        C  0.69691238  0.99928798  0.24543181     0.18300
C185        C  0.67818183  0.02260129  0.21282484    -0.09600
C186        C  0.64084067  0.02155400  0.21111010    -0.02600
H187        H  0.69242241  0.95713599  0.30097715     0.04800
C188        C  0.73623709  0.99934759  0.24782860     0.20300
H189        H  0.62665750  0.03971091  0.18596124     0.10000
C190        C  0.75522032  0.97959037  0.21340521    -0.16000
C191        C  0.79250938  0.97844001  0.21478350     0.03000
C192        C  0.81145956  0.99734211  0.25136180    -0.11300
C193        C  0.79224492  0.01667438  0.28641119    -0.01300
C194        C  0.75485723  0.01795524  0.28461354    -0.06500
H195        H  0.74090930  0.96472130  0.18563798     0.06000
H196        H  0.80633506  0.03142670  0.31457737     0.09400
Br197      Br  0.70257263  0.05641730  0.17048712    -0.06200
Br198      Br  0.61717188  0.94122061  0.31910975    -0.03100
Br199      Br  0.81557492  0.94872942  0.16753883    -0.00300
Br200      Br  0.73019188  0.04605873  0.33209138    -0.04700
C201        C  0.81268844  0.99873662  0.00851743    -0.12100
C202        C  0.79220788  0.01605070  0.04468386     0.03400
C203        C  0.75482182  0.01473317  0.04227743    -0.12600
C204        C  0.73737896  0.99627103  0.50421644     0.18300
C205        C  0.75774477  0.97861566  0.46861439    -0.09600
C206        C  0.79504068  0.98018760  0.47063425    -0.02600
H207        H  0.73929138  0.02869472  0.06949182     0.04800
C208        C  0.69781911  0.99662063  0.00173013     0.20300
H209        H  0.81028493  0.96640549  0.44292156     0.10000
C210        C  0.68102802  0.01559546  0.46221972    -0.16000
C211        C  0.64377258  0.01595566  0.45757976     0.03000
C212        C  0.62272763  0.99720540  0.99283774    -0.11300
C213        C  0.63951762  0.97830285  0.03215573    -0.01300
C214        C  0.67678974  0.97813464  0.03703470    -0.06500
H215        H  0.69698219  0.02992947  0.43494652     0.06000
H216        H  0.62355213  0.96396464  0.05947313     0.09400
Br217      Br  0.73579551  0.95108496  0.41747489    -0.06200
Br218      Br  0.81333073  0.04393162  0.09612996    -0.03100
Br219      Br  0.62299659  0.04060199  0.40108573    -0.00300
Br220      Br  0.69778014  0.95160367  0.09164481    -0.04700
C221        C  0.92041875  0.69863210  0.24771206    -0.12100
C222        C  0.89078519  0.71892336  0.22994616     0.03400
C223        C  0.89211940  0.75627568  0.23040911    -0.12600
C224        C  0.92269530  0.77391050  0.24725026     0.18300
C225        C  0.95264545  0.75402114  0.26313526    -0.09600
C226        C  0.95131672  0.71672518  0.26345274    -0.02600
H227        H  0.86925673  0.77172153  0.21728988     0.04800
C228        C  0.92257405  0.81314239  0.24887745     0.20300
H229        H  0.97449106  0.70186542  0.27674204     0.10000
C230        C  0.90769020  0.82961139  0.28993323    -0.16000
C231        C  0.90688497  0.86687511  0.29280141     0.03000
C232        C  0.92104768  0.88823570  0.25353583    -0.11300
C233        C  0.93576734  0.87136204  0.21235600    -0.01300
C234        C  0.93677379  0.83415346  0.20997846    -0.06500
H235        H  0.89660064  0.81332966  0.31985941     0.06000
H236        H  0.94695882  0.88713920  0.18201848     0.09400
Br237      Br  0.99574122  0.77676928  0.28497972    -0.06200
Br238      Br  0.84845270  0.69804032  0.20204728    -0.03100
Br239      Br  0.88452965  0.88621539  0.35025225    -0.00300
Br240      Br  0.95796181  0.81310508  0.15320011    -0.04700
C241        C  0.92043228  0.70081407  0.00175666    -0.12100
C242        C  0.89100585  0.72187278  0.48584704     0.03400
C243        C  0.89341602  0.75920940  0.48563843    -0.12600
C244        C  0.92454758  0.77626939  0.00082425     0.18300
C245        C  0.95409875  0.75561686  0.01651060    -0.09600
C246        C  0.95192570  0.71831875  0.01666218    -0.02600
H247        H  0.87061513  0.77513216  0.47349393     0.04800
C248        C  0.92545801  0.81566839  0.50174774     0.20300
H249        H  0.97497988  0.70296729  0.02921296     0.10000
C250        C  0.90531305  0.83282532  0.03801072    -0.16000
C251        C  0.90424679  0.87011052  0.03966260     0.03000
C252        C  0.92351017  0.89089722  0.00456821    -0.11300
C253        C  0.94304353  0.87362071  0.46759296    -0.01300
C254        C  0.94400361  0.83627360  0.46596901    -0.06500
H255        H  0.89025594  0.81706329  0.06486871     0.06000
H256        H  0.95756273  0.88920852  0.43998041     0.09400
Br257      Br  0.99758337  0.77705232  0.03949627    -0.06200
Br258      Br  0.84672272  0.70220763  0.46242051    -0.03100
Br259      Br  0.87374577  0.89076555  0.08820878    -0.00300
Br260      Br  0.96984954  0.81464283  0.41334700    -0.04700
C261        C  0.03163448  0.99955325  0.25197604    -0.12100
C262        C  0.05365128  0.98422349  0.28974397     0.03400
C263        C  0.09089232  0.98600299  0.28539144    -0.12600
C264        C  0.10675029  0.00289151  0.24412596     0.18300
C265        C  0.08499770  0.01807379  0.20649498    -0.09600
C266        C  0.04786304  0.01635348  0.21064127    -0.02600
H267        H  0.10763516  0.97382627  0.31413229     0.04800
C268        C  0.14602806  0.00288719  0.23987204     0.20300
H269        H  0.03158902  0.02829757  0.18121262     0.10000
C270        C  0.16321581  0.97158057  0.22557315    -0.16000
C271        C  0.20043685  0.97017397  0.22144583     0.03000
C272        C  0.22130849  0.00073022  0.23228304    -0.11300
C273        C  0.20364142  0.03223866  0.24596728    -0.01300
C274        C  0.16641802  0.03345223  0.24989744    -0.06500
H275        H  0.14747265  0.94810479  0.21730433     0.06000
H276        H  0.21882265  0.05597701  0.25462541     0.09400
Br277      Br  0.10485417  0.04061083  0.14823268    -0.06200
Br278      Br  0.03504129  0.95850449  0.34643457    -0.03100
Br279      Br  0.22006367  0.92588084  0.19918819    -0.00300
Br280      Br  0.14459999  0.07711412  0.27024646    -0.04700
C281        C  0.03286703  0.00353415  0.00188744    -0.12100
C282        C  0.05516174  0.98812140  0.03929220     0.03400
C283        C  0.09232868  0.99016766  0.03462073    -0.12600
C284        C  0.10795829  0.00736396  0.49343332     0.18300
C285        C  0.08597452  0.02265501  0.45615024    -0.09600
C286        C  0.04885766  0.02070614  0.46059051    -0.02600
H287        H  0.10927531  0.97780721  0.06298335     0.04800
C288        C  0.14709164  0.00711693  0.98871367     0.20300
H289        H  0.03236178  0.03269219  0.43143853     0.10000
C290        C  0.16387859  0.97579052  0.47355692    -0.16000
C291        C  0.20106027  0.97377775  0.46986998     0.03000
C292        C  0.22230980  0.00358608  0.98227125    -0.11300
C293        C  0.20516670  0.03529382  0.99639751    -0.01300
C294        C  0.16792358  0.03720376  0.99968359    -0.06500
H295        H  0.14778284  0.95275739  0.46431441     0.06000
H296        H  0.22075569  0.05860049  0.00585928     0.09400
Br297      Br  0.10547835  0.04536309  0.39782087    -0.06200
Br298      Br  0.03711873  0.96172522  0.09578851    -0.03100
Br299      Br  0.22008324  0.92981361  0.44563014    -0.00300
Br300      Br  0.14666006  0.08104829  0.02043895    -0.04700
O301        O  0.33329674  0.03037977  0.55589633    -0.73000
O302        O  0.33304338  0.03030156  0.90686299    -0.74000
O303        O  0.27963164  0.03183260  0.98072288    -0.62600
O304        O  0.38689305  0.02922388  0.48204497    -0.71000
O305        O  0.38581019  0.96979280  0.48380210    -0.70600
O306        O  0.27852088  0.97262907  0.98329177    -0.61800
O307        O  0.33172615  0.97088096  0.90914529    -0.74400
O308        O  0.33233911  0.97095167  0.55774499    -0.73100
Cu309      Cu  0.33326137  0.03254792  0.98124323     1.04600
Cu310      Cu  0.33208894  0.96904790  0.48350274     1.04300
C311        C  0.33273446  0.00061407  0.58023791     0.93200
C312        C  0.33215309  0.00052365  0.88459193     0.92300
C313        C  0.26207334  0.00258734  0.48177927     0.84500
C314        C  0.40317231  0.99920952  0.98333859     0.90700
O315        O  0.33163833  0.03003000  0.80573623    -0.73000
O316        O  0.33241145  0.03012249  0.65710724    -0.74000
O317        O  0.27815655  0.02992708  0.73031485    -0.62600
O318        O  0.38567097  0.02960357  0.73276267    -0.71000
O319        O  0.38526873  0.97015911  0.73459988    -0.70600
O320        O  0.27825280  0.97072652  0.73262085    -0.61800
O321        O  0.33208567  0.97068967  0.65895155    -0.74400
O322        O  0.33155560  0.97059264  0.80791637    -0.73100
Cu323      Cu  0.33195181  0.03200452  0.73136836     1.04600
Cu324      Cu  0.33176029  0.96847999  0.73353483     1.04300
C325        C  0.33171508  0.00036124  0.83023648     0.93200
C326        C  0.33242175  0.00046062  0.63461059     0.90100
C327        C  0.26110126  0.00025240  0.73123825     0.84500
C328        C  0.40234044  0.99973015  0.73429600     0.90700
O329        O  0.89075056  0.64392277  0.50330492    -0.73000
O330        O  0.89157990  0.53657063  0.50651598    -0.74000
O331        O  0.89105314  0.58979181  0.57920450    -0.62600
O332        O  0.89086358  0.59028351  0.93036822    -0.71000
O333        O  0.95023224  0.59058022  0.93097415    -0.70600
O334        O  0.95042678  0.59017129  0.57980540    -0.61800
O335        O  0.95097340  0.53698377  0.50715468    -0.74400
O336        O  0.94971360  0.64408131  0.00373458    -0.73100
Cu337      Cu  0.88900749  0.59017702  0.50481032     1.04600
Cu338      Cu  0.95231865  0.59052358  0.00541482     1.04300
C339        C  0.92025712  0.66109126  0.50276482     0.93200
C340        C  0.92142129  0.51991981  0.50762651     0.92300
C341        C  0.92074424  0.58953933  0.60292018     0.84500
C342        C  0.92054640  0.59026901  0.90725064     0.90700
O343        O  0.89105287  0.58813716  0.68037542    -0.73000
O344        O  0.89089914  0.58909281  0.82913970    -0.74000
O345        O  0.89076310  0.64194913  0.75196740    -0.62600
O346        O  0.89141405  0.53478827  0.75738337    -0.71000
O347        O  0.95080143  0.53523423  0.75820847    -0.70600
O348        O  0.94995613  0.64225094  0.75227610    -0.61800
O349        O  0.95026705  0.58960942  0.82979984    -0.74400
O350        O  0.95043037  0.58836105  0.68102204    -0.73100
Cu351      Cu  0.88894902  0.58842651  0.75472237     1.04600
Cu352      Cu  0.95243174  0.58882581  0.75539857     1.04300
C353        C  0.92074433  0.58857746  0.65728591     0.93200
C354        C  0.92056731  0.58967630  0.85288191     0.92300
C355        C  0.92023973  0.65911279  0.75057699     0.84500
C356        C  0.92125339  0.51814341  0.75866258     0.90700
O357        O  0.51358575  0.96825618  0.91368201    -0.73000
O358        O  0.51160829  0.96833179  0.56250642    -0.74000
O359        O  0.45898910  0.96868219  0.48594563    -0.62600
O360        O  0.56633597  0.96787462  0.99096389    -0.71000
O361        O  0.56677818  0.02729845  0.98682792    -0.70600
O362        O  0.45961727  0.02812154  0.48454769    -0.61800
O363        O  0.51285700  0.02776493  0.56020434    -0.74400
O364        O  0.51337251  0.02769981  0.91146982    -0.73100
Cu365      Cu  0.51265975  0.96615437  0.48827641     1.04600
Cu366      Cu  0.51316023  0.02980846  0.98568563     1.04300
C367        C  0.51329600  0.99795858  0.88915700     0.93200
C368        C  0.51210813  0.99810633  0.58476022     0.92300
C369        C  0.44236991  0.99863214  0.98458769     0.84500
C370        C  0.58348448  0.99740041  0.48966174     0.90700
O371        O  0.51168749  0.96828554  0.81236489    -0.73000
O372        O  0.51180647  0.96851778  0.66360380    -0.74000
O373        O  0.56521761  0.96781900  0.73924444    -0.62600
O374        O  0.45801643  0.96929848  0.73698232    -0.71000
O375        O  0.45875418  0.02873957  0.73535326    -0.70600
O376        O  0.56589673  0.02721558  0.73616641    -0.61800
O377        O  0.51216034  0.02796221  0.66144061    -0.74400
O378        O  0.51276795  0.02771795  0.81034265    -0.73100
Cu379      Cu  0.51162231  0.96639662  0.73807045     1.04600
Cu380      Cu  0.51239436  0.02998667  0.73575981     1.04300
C381        C  0.51259749  0.99798039  0.83477392     0.93200
C382        C  0.51197721  0.99821021  0.63911434     0.92300
C383        C  0.58244734  0.99732450  0.73867164     0.84500
C384        C  0.44151471  0.99925392  0.73565337     0.90700
O385        O  0.92397266  0.94629044  0.54636592    -0.73000
O386        O  0.92341732  0.05315637  0.54836200    -0.74000
O387        O  0.86997585  0.99940767  0.54875747    -0.62600
O388        O  0.97739556  0.00024062  0.54562303    -0.71000
O389        O  0.97535767  0.00309936  0.96351494    -0.70600
O390        O  0.86846196  0.00054738  0.96667802    -0.61800
O391        O  0.92087585  0.05538738  0.96622984    -0.74400
O392        O  0.92316322  0.94824217  0.96416403    -0.73100
Cu393      Cu  0.92375882  0.99967511  0.55015549     1.04600
Cu394      Cu  0.92190133  0.00189444  0.96228870     1.04300
C395        C  0.92354210  0.93033592  0.50503576     0.93200
C396        C  0.92191103  0.07124354  0.50759446     0.92300
C397        C  0.85229407  0.99983714  0.50800442     0.84500
C398        C  0.99342757  0.00198980  0.50396380     0.90700
O399        O  0.86764720  0.99770441  0.79454381    -0.73000
O400        O  0.97551469  0.99725998  0.79493920    -0.74000
O401        O  0.92187359  0.05075525  0.79529383    -0.62600
O402        O  0.92134229  0.94406208  0.79521880    -0.71000
O403        O  0.92133242  0.94556776  0.71301993    -0.70600
O404        O  0.92136761  0.05271431  0.71306624    -0.61800
O405        O  0.97463236  0.99920629  0.71274561    -0.74400
O406        O  0.86812870  0.99899739  0.71227086    -0.73100
Cu407      Cu  0.92159967  0.99739264  0.79792685     1.04600
Cu408      Cu  0.92134959  0.99916818  0.70996782     1.04300
C409        C  0.85094330  0.99795364  0.75294388     0.93200
C410        C  0.99209529  0.99831014  0.75362669     0.92300
C411        C  0.92164517  0.06870694  0.75438651     0.84500
C412        C  0.92107021  0.92782962  0.75416531     0.90700
O413        O  0.89256413  0.41033696  0.58719770    -0.73000
O414        O  0.89252367  0.40975999  0.93830529    -0.74000
O415        O  0.89270193  0.35682122  0.01506516    -0.62600
O416        O  0.89216187  0.46376762  0.51031882    -0.71000
O417        O  0.95155373  0.46405706  0.51083991    -0.70600
O418        O  0.95186120  0.35682926  0.51599915    -0.61800
O419        O  0.95189953  0.40987196  0.93907058    -0.74400
O420        O  0.95193794  0.41060051  0.58775830    -0.73100
Cu421      Cu  0.89039238  0.41019910  0.01270207     1.04600
Cu422      Cu  0.95390506  0.41039118  0.51342842     1.04300
C423        C  0.92228125  0.41009682  0.61090562     0.93200
C424        C  0.92224816  0.40950995  0.91528984     0.92300
C425        C  0.92221129  0.33984435  0.51670040     0.84500
C426        C  0.92174507  0.48077137  0.50965321     0.90700
O427        O  0.95207179  0.40893918  0.83793278    -0.73000
O428        O  0.95207417  0.40882418  0.68902948    -0.74000
O429        O  0.95148814  0.46236347  0.76147472    -0.62600
O430        O  0.95267952  0.35494215  0.76570341    -0.71000
O431        O  0.89354172  0.35467879  0.76459263    -0.70600
O432        O  0.89209956  0.46184968  0.76100436    -0.61800
O433        O  0.89270541  0.40855335  0.68844030    -0.74400
O434        O  0.89270307  0.40831920  0.83717649    -0.73100
Cu435      Cu  0.95417410  0.40874429  0.76354381     1.04600
Cu436      Cu  0.89071471  0.40826655  0.76278336     1.04300
C437        C  0.92234951  0.40885767  0.86095786     0.93200
C438        C  0.92236540  0.40910881  0.66530487     0.92300
C439        C  0.92162731  0.47897399  0.76051764     0.84500
C440        C  0.92316256  0.33770059  0.76620764     0.90700
C441        C  0.92254544  0.10818067  0.75564638    -0.12100
C442        C  0.90737215  0.13025694  0.71768617     0.03400
C443        C  0.90902797  0.16747415  0.72137055    -0.12600
C444        C  0.92554607  0.18320429  0.76222505     0.18300
C445        C  0.94028907  0.16136709  0.80025453    -0.09600
C446        C  0.93876975  0.12423108  0.79673062    -0.02600
H447        H  0.89709128  0.18429620  0.69241212     0.04800
C448        C  0.92580731  0.22247694  0.76527517     0.20300
H449        H  0.95044210  0.10783559  0.82634814     0.10000
C450        C  0.89455755  0.23994369  0.77931881    -0.16000
C451        C  0.89316353  0.27725387  0.78118771     0.03000
C452        C  0.92352454  0.29791843  0.76775232    -0.11300
C453        C  0.95509416  0.27996886  0.75470624    -0.01300
C454        C  0.95639966  0.24260891  0.75349813    -0.06500
H455        H  0.87112768  0.22436071  0.78914662     0.06000
H456        H  0.97879164  0.29499118  0.74457327     0.09400
Br457      Br  0.96193621  0.18104004  0.85818311    -0.06200
Br458      Br  0.88196612  0.11174974  0.66168036    -0.03100
Br459      Br  0.84928868  0.29733554  0.80458874    -0.00300
Br460      Br  0.00020296  0.22013341  0.73459428    -0.04700
C461        C  0.92207620  0.11071654  0.50887392    -0.12100
C462        C  0.90472893  0.13234701  0.97235122     0.03400
C463        C  0.90599526  0.16958380  0.97552806    -0.12600
C464        C  0.92417462  0.18576701  0.51442965     0.18300
C465        C  0.94120531  0.16445592  0.55113954    -0.09600
C466        C  0.94004952  0.12724445  0.54818661    -0.02600
H467        H  0.89238988  0.18606825  0.94764760     0.04800
C468        C  0.92466349  0.22500922  0.01662346     0.20300
H469        H  0.95349324  0.11117416  0.57665925     0.10000
C470        C  0.89435352  0.24250377  0.53480560    -0.16000
C471        C  0.89311231  0.27982767  0.53619301     0.03000
C472        C  0.92238692  0.30026984  0.51832540    -0.11300
C473        C  0.95286231  0.28240932  0.00088494    -0.01300
C474        C  0.95408816  0.24512254  0.99994655    -0.06500
H475        H  0.87181960  0.22696531  0.54824846     0.06000
H476        H  0.97558459  0.29747117  0.98707990     0.09400
Br477      Br  0.96588248  0.18509128  0.60613205    -0.06200
Br478      Br  0.87698272  0.11313852  0.91897467    -0.03100
Br479      Br  0.85135245  0.30046377  0.56521522    -0.00300
Br480      Br  0.99621863  0.22283173  0.97487597    -0.04700
C481        C  0.62180665  0.99711281  0.74104269    -0.12100
C482        C  0.64070555  0.97387028  0.77392521     0.03400
C483        C  0.67803051  0.97512639  0.77578084    -0.12600
C484        C  0.69694044  0.99924649  0.74532874     0.18300
C485        C  0.67823513  0.02241800  0.71249359    -0.09600
C486        C  0.64089098  0.02141209  0.71079751    -0.02600
H487        H  0.69240060  0.95738999  0.80129800     0.04800
C488        C  0.73626390  0.99931325  0.74779281     0.20300
H489        H  0.62672151  0.03946051  0.68548193     0.10000
C490        C  0.75529440  0.97965379  0.71331053    -0.16000
C491        C  0.79258364  0.97851674  0.71476564     0.03000
C492        C  0.81148600  0.99733546  0.75148331    -0.11300
C493        C  0.79222148  0.01656972  0.78658317    -0.01300
C494        C  0.75483555  0.01783939  0.78470566    -0.06500
H495        H  0.74101912  0.96485722  0.68542756     0.06000
H496        H  0.80627180  0.03126884  0.81484189     0.09400
Br497      Br  0.70266391  0.05601853  0.66987043    -0.06200
Br498      Br  0.61711940  0.94167793  0.81959003    -0.03100
Br499      Br  0.81571106  0.94895317  0.66739286    -0.00300
Br500      Br  0.73010439  0.04586667  0.83220676    -0.04700
C501        C  0.81276355  0.99879001  0.50823866    -0.12100
C502        C  0.79226655  0.01613548  0.54435614     0.03400
C503        C  0.75488156  0.01482553  0.54190929    -0.12600
C504        C  0.73730197  0.99618820  0.00458941     0.18300
C505        C  0.75765407  0.97852374  0.96897855    -0.09600
C506        C  0.79494953  0.98011519  0.97094769    -0.02600
H507        H  0.73933808  0.02878866  0.56910579     0.04800
C508        C  0.69789570  0.99663911  0.50139547     0.20300
H509        H  0.81018152  0.96633775  0.94321733     0.10000
C510        C  0.68101091  0.01548600  0.96241894    -0.16000
C511        C  0.64376147  0.01588028  0.95770300     0.03000
C512        C  0.62279317  0.99714397  0.49264781    -0.11300
C513        C  0.63964896  0.97813007  0.53181149    -0.01300
C514        C  0.67692663  0.97800353  0.53662051    -0.06500
H515        H  0.69700865  0.02971213  0.93508995     0.06000
H516        H  0.62373130  0.96368465  0.55907688     0.09400
Br517      Br  0.73568825  0.95095637  0.91788920    -0.06200
Br518      Br  0.81336970  0.04404675  0.59578524    -0.03100
Br519      Br  0.62306537  0.04036577  0.90102319    -0.00300
Br520      Br  0.69801944  0.95134982  0.59104487    -0.04700
C521        C  0.92039504  0.69870801  0.74785565    -0.12100
C522        C  0.89068768  0.71902902  0.73039232     0.03400
C523        C  0.89206734  0.75638127  0.73083054    -0.12600
C524        C  0.92273249  0.77399309  0.74740727     0.18300
C525        C  0.95271863  0.75407950  0.76308371    -0.09600
C526        C  0.95136745  0.71678431  0.76336867    -0.02600
H527        H  0.86915645  0.77184669  0.71793007     0.04800
C528        C  0.92264493  0.81322526  0.74906300     0.20300
H529        H  0.97458557  0.70191249  0.77647277     0.10000
C530        C  0.90781319  0.82968443  0.79016143    -0.16000
C531        C  0.90702915  0.86694586  0.79306185     0.03000
C532        C  0.92113352  0.88831713  0.75376333    -0.11300
C533        C  0.93582016  0.87145412  0.71255471    -0.01300
C534        C  0.93682719  0.83424739  0.71016059    -0.06500
H535        H  0.89675531  0.81339543  0.82010347     0.06000
H536        H  0.94698485  0.88723855  0.68220452     0.09400
Br537      Br  0.99587561  0.77679465  0.78476974    -0.06200
Br538      Br  0.84813541  0.69820721  0.70304193    -0.03100
Br539      Br  0.88480381  0.88625933  0.85062747    -0.00300
Br540      Br  0.95799191  0.81322614  0.65335088    -0.04700
C541        C  0.92067534  0.70082884  0.50168897    -0.12100
C542        C  0.89066090  0.72185075  0.98627666     0.03400
C543        C  0.89306543  0.75918836  0.98604309    -0.12600
C544        C  0.92481951  0.77627650  0.50075866     0.18300
C545        C  0.95428972  0.75561634  0.51672928    -0.09600
C546        C  0.95209811  0.71831783  0.51690462    -0.02600
H547        H  0.87019202  0.77510242  0.97415765     0.04800
C548        C  0.92519179  0.81566554  0.00178643     0.20300
H549        H  0.97507913  0.70295301  0.52969527     0.10000
C550        C  0.90563752  0.83280608  0.53804834    -0.16000
C551        C  0.90453120  0.87009039  0.53969717     0.03000
C552        C  0.92367163  0.89089936  0.50448764    -0.11300
C553        C  0.94292457  0.87360356  0.96773264    -0.01300
C554        C  0.94381820  0.83625685  0.96606921    -0.06500
H555        H  0.89065669  0.81702622  0.56497066     0.06000
H556        H  0.95751284  0.88918065  0.94018056     0.09400
Br557      Br  0.99769879  0.77704960  0.53997953    -0.06200
Br558      Br  0.84620538  0.70219173  0.96346247    -0.03100
Br559      Br  0.87416124  0.89069749  0.58844495    -0.00300
Br560      Br  0.96964533  0.81462052  0.91342763    -0.04700
C561        C  0.03166832  0.99947010  0.75208736    -0.12100
C562        C  0.05366953  0.98401704  0.78977775     0.03400
C563        C  0.09091383  0.98566085  0.78535184    -0.12600
C564        C  0.10678914  0.00252072  0.74407573     0.18300
C565        C  0.08504897  0.01778478  0.70649225    -0.09600
C566        C  0.04791404  0.01621075  0.71072101    -0.02600
H567        H  0.10764304  0.97341708  0.81405438     0.04800
C568        C  0.14606948  0.00249765  0.73982093     0.20300
H569        H  0.03165288  0.02821999  0.68132819     0.10000
C570        C  0.16327020  0.97116953  0.72562373    -0.16000
C571        C  0.20049451  0.96977603  0.72147843     0.03000
C572        C  0.22135211  0.00036430  0.73220844    -0.11300
C573        C  0.20366943  0.03188768  0.74578832    -0.01300
C574        C  0.16644971  0.03309104  0.74972682    -0.06500
H575        H  0.14753629  0.94767146  0.71743897     0.06000
H576        H  0.21883610  0.05565252  0.75436021     0.09400
Br577      Br  0.10491932  0.04024245  0.64818339    -0.06200
Br578      Br  0.03501815  0.95830083  0.84644249    -0.03100
Br579      Br  0.22014624  0.92545983  0.69934206    -0.00300
Br580      Br  0.14462753  0.07678827  0.76993459    -0.04700
C581        C  0.03294534  0.00353196  0.50187065    -0.12100
C582        C  0.05522776  0.98800670  0.53919865     0.03400
C583        C  0.09239623  0.99003517  0.53453319    -0.12600
C584        C  0.10788065  0.00739247  0.99343226     0.18300
C585        C  0.08588625  0.02257378  0.95607637    -0.09600
C586        C  0.04877000  0.02061787  0.96052976    -0.02600
H587        H  0.10933514  0.97759182  0.56283633     0.04800
C588        C  0.14716940  0.00711100  0.48873600     0.20300
H589        H  0.03226812  0.03252009  0.93132024     0.10000
C590        C  0.16379189  0.97573157  0.97375676    -0.16000
C591        C  0.20097251  0.97369608  0.97005855     0.03000
C592        C  0.22238620  0.00362228  0.48231324    -0.11300
C593        C  0.20523656  0.03526836  0.49666329    -0.01300
C594        C  0.16799200  0.03715647  0.49994208    -0.06500
H595        H  0.14768887  0.95266362  0.96469590     0.06000
H596        H  0.22082153  0.05853724  0.50630527     0.09400
Br597      Br  0.10537385  0.04512075  0.89761990    -0.06200
Br598      Br  0.03715651  0.96149418  0.59557308    -0.03100
Br599      Br  0.21997119  0.92962764  0.94613150    -0.00300
Br600      Br  0.14671057  0.08091063  0.52100304    -0.04700
loop_ 
_geom_bond_atom_site_label_1 
_geom_bond_atom_site_label_2 
_geom_bond_distance 
_geom_bond_site_symmetry_2 
_ccdc_geom_bond_type 
O1           C11   1.278       .  A
O1         Cu309   2.010   1_554  S
O2           C12   1.278       .  A
O2           Cu9   2.009       .  S
O3          C313   1.278       .  A
O3           Cu9   2.006       .  S
O4          C314   1.277   1_545  A
O4         Cu309   2.007       .  S
O5          C314   1.278       .  A
O5          Cu10   2.010       .  S
O6          C313   1.277   1_565  A
O6         Cu310   2.006       .  S
O7           C12   1.277   1_565  A
O7         Cu310   2.006       .  S
O8           C11   1.277   1_565  A
O8          Cu10   2.005   1_554  S
Cu9         O301   2.010       .  S
Cu9         O304   2.007       .  S
Cu9        Cu310   2.374   1_545  S
Cu10        O306   2.006       .  S
Cu10        O307   2.006       .  S
Cu10       Cu309   2.374   1_565  S
C11          C26   1.466       .  S
C12          C25   1.466       .  S
C13         O303   1.278       .  A
C13         O306   1.277   1_545  A
C13         C292   1.485       .  S
C14         O304   1.277   1_565  A
C14         O305   1.278       .  A
C14          C69   1.466       .  S
O15          C25   1.277       .  A
O15         Cu23   2.005       .  S
O16          C26   1.277       .  A
O16         Cu23   2.006       .  S
O17          C27   1.280       .  A
O17         Cu23   2.014       .  S
O18          C28   1.278   1_545  A
O18         Cu23   2.012       .  S
O19          C28   1.277       .  A
O19         Cu24   2.003       .  S
O20          C27   1.276   1_565  A
O20         Cu24   2.003       .  S
O21          C26   1.278   1_565  A
O21         Cu24   2.010       .  S
O22          C25   1.278   1_565  A
O22         Cu24   2.008       .  S
Cu23        Cu24   2.374   1_545  S
C27         C272   1.487       .  S
C28          C84   1.466       .  S
O29          C39   1.277       .  A
O29         Cu37   2.009       .  S
O30          C40   1.278       .  A
O30         Cu37   2.005       .  S
O31          C41   1.277       .  A
O31         Cu37   2.007       .  S
O32          C42   1.277       .  A
O32        Cu337   2.008       .  S
O33          C42   1.277       .  A
O33         Cu38   2.008       .  S
O34          C41   1.277       .  A
O34        Cu338   2.007       .  S
O35          C40   1.277       .  A
O35        Cu338   2.001       .  S
O36         C339   1.278       .  A
O36         Cu38   2.004       .  S
Cu37        O332   2.009   1_554  S
Cu37       Cu338   2.374       .  S
Cu38        O334   2.008       .  S
Cu38        O335   2.001       .  S
Cu38       Cu337   2.374       .  S
C39         O336   1.278       .  A
C39         C241   1.485       .  S
C40         C126   1.463       .  S
C41          C53   1.465       .  S
C42          C54   1.467       .  S
O43          C53   1.277       .  A
O43         Cu51   2.007       .  S
O44          C54   1.277       .  A
O44         Cu51   2.008       .  S
O45          C55   1.276       .  A
O45         Cu51   2.001       .  S
O46          C56   1.277       .  A
O46         Cu51   2.007       .  S
O47          C56   1.277       .  A
O47         Cu52   2.003       .  S
O48          C55   1.278       .  A
O48         Cu52   1.998       .  S
O49          C54   1.278       .  A
O49         Cu52   2.009       .  S
O50          C53   1.277       .  A
O50         Cu52   2.007       .  S
Cu51        Cu52   2.375       .  S
C55         C221   1.480       .  S
C56         C139   1.464       .  S
O57          C67   1.278       .  A
O57        Cu365   2.012       .  S
O58          C68   1.277       .  A
O58         Cu65   2.006   1_554  S
O59         C369   1.278       .  A
O59         Cu65   2.010       .  S
O60         C370   1.278       .  A
O60        Cu365   2.012       .  S
O61         C370   1.277   1_545  A
O61         Cu66   2.008       .  S
O62         C369   1.277   1_545  A
O62        Cu366   2.006       .  S
O63          C68   1.278   1_545  A
O63        Cu366   2.009   1_554  S
O64          C67   1.277   1_545  A
O64         Cu66   2.004       .  S
Cu65        O357   2.012       .  S
Cu65        O360   2.011       .  S
Cu65       Cu366   2.377   1_565  S
Cu66        O362   2.006       .  S
Cu66        O363   2.009       .  S
Cu66       Cu365   2.377   1_545  S
C67          C81   1.466       .  S
C68          C82   1.466       .  S
C69         O359   1.278       .  A
C69         O362   1.277   1_565  A
C70         O360   1.278       .  A
C70         O361   1.277   1_565  A
C70         C212   1.472       .  S
O71          C81   1.277       .  A
O71         Cu79   2.006       .  S
O72          C82   1.277       .  A
O72         Cu79   2.007       .  S
O73          C83   1.277       .  A
O73         Cu79   2.006       .  S
O74          C84   1.278       .  A
O74         Cu79   2.008       .  S
O75          C84   1.277   1_545  A
O75         Cu80   2.007       .  S
O76          C83   1.277   1_545  A
O76         Cu80   2.004       .  S
O77          C82   1.277   1_545  A
O77         Cu80   2.007       .  S
O78          C81   1.278   1_545  A
O78         Cu80   2.010       .  S
Cu79        Cu80   2.376   1_565  S
C83         C181   1.473       .  S
O85          C95   1.277       .  A
O85         Cu93   2.001       .  S
O86          C96   1.277       .  A
O86         Cu93   1.999   1_545  S
O87          C97   1.278       .  A
O87         Cu93   2.012       .  S
O88          C98   1.278       .  A
O88         Cu93   2.011   1_545  S
O89         C398   1.278       .  A
O89         Cu94   2.000       .  S
O90         C397   1.278   1_545  A
O90         Cu94   2.004       .  S
O91         C396   1.277       .  A
O91         Cu94   2.005       .  S
O92         C395   1.278       .  A
O92         Cu94   2.006   1_565  S
Cu93       Cu394   2.371   1_564  S
Cu94       Cu393   2.371   1_545  S
C95         O392   1.278   1_554  A
C95         C252   1.474       .  S
C96         O391   1.277   1_554  A
C96         C161   1.477       .  S
C97         O390   1.278   1_564  A
C97         C201   1.479       .  S
C98         O389   1.278   1_554  A
C98         C281   1.481   1_655  S
O99         C109   1.279       .  A
O99        Cu107   2.019       .  S
O100        C110   1.279       .  A
O100       Cu107   2.018       .  S
O101        C111   1.277       .  A
O101       Cu107   1.994   1_545  S
O102        C112   1.275       .  A
O102       Cu107   1.997       .  S
O103        C112   1.278       .  A
O103       Cu108   2.003       .  S
O104        C111   1.277       .  A
O104       Cu108   2.005   1_545  S
O105        C110   1.277       .  A
O105       Cu108   1.994       .  S
O106        C109   1.275       .  A
O106       Cu108   1.993       .  S
Cu107      Cu108   2.371       .  S
C109        C192   1.476       .  S
C110        C261   1.482   1_655  S
C111        C141   1.477       .  S
C112        C232   1.477       .  S
O113        C123   1.278       .  A
O113       Cu421   2.010       .  S
O114        C124   1.278       .  A
O114       Cu121   2.009       .  S
O115        C425   1.275       .  A
O115       Cu121   1.996       .  S
O116        C126   1.276       .  A
O116       Cu421   2.001       .  S
O117        C126   1.278       .  A
O117       Cu122   2.007       .  S
O118        C125   1.278       .  A
O118       Cu122   2.003       .  S
O119        C124   1.277       .  A
O119       Cu422   2.006       .  S
O120        C123   1.277       .  A
O120       Cu122   2.006       .  S
Cu121       O413   2.010       .  S
Cu121       O416   2.001       .  S
Cu121      Cu422   2.375       .  S
Cu122       O419   2.006   1_554  S
Cu122      Cu421   2.375       .  S
C123        C138   1.466       .  S
C124        C137   1.466       .  S
C125        O415   1.276       .  A
C125        C172   1.479       .  S
O127        C137   1.278       .  A
O127       Cu135   2.008       .  S
O128        C138   1.278       .  A
O128       Cu135   2.010       .  S
O129        C139   1.278       .  A
O129       Cu135   2.006       .  S
O130        C140   1.279       .  A
O130       Cu135   2.011       .  S
O131        C140   1.277       .  A
O131       Cu136   2.005       .  S
O132        C139   1.277       .  A
O132       Cu136   2.003       .  S
O133        C138   1.277       .  A
O133       Cu136   2.006       .  S
O134        C137   1.277       .  A
O134       Cu136   2.007       .  S
Cu135      Cu136   2.374       .  S
C140        C152   1.487       .  S
C141        C142   1.414       .  A
C141        C146   1.406       .  A
C142        C143   1.398       .  A
C142       Br158   1.921       .  S
C143        C144   1.401       .  A
C143        H147   1.084       .  S
C144        C148   1.472       .  S
C144        C145   1.404       .  A
C145        C146   1.395       .  A
C145       Br157   1.917       .  S
C146        H149   1.084       .  S
C148        C150   1.398       .  A
C148        C154   1.404       .  A
C150        C151   1.398       .  A
C150        H155   1.084       .  S
C151        C152   1.418       .  A
C151       Br159   1.922       .  S
C152        C153   1.409       .  A
C153        C154   1.398       .  A
C153        H156   1.083       .  S
C154       Br160   1.919   1_655  S
C161        C166   1.407       .  A
C161        C462   1.414   1_554  A
C162        C163   1.397       .  A
C162        C461   1.414       .  A
C162       Br178   1.921       .  S
C163        C464   1.400       .  A
C163        H167   1.084       .  S
C164        C468   1.470       .  S
C164        C165   1.404       .  A
C164        C463   1.400   1_554  A
C165        C166   1.396       .  A
C165       Br177   1.918       .  S
C166        H169   1.084       .  S
C168        C464   1.469       .  S
C168        C174   1.404       .  A
C168        C470   1.399       .  A
C170        C171   1.397       .  A
C170        C468   1.399       .  A
C170        H175   1.084       .  S
C171        C172   1.416       .  A
C171       Br179   1.922       .  S
C172        C473   1.406       .  A
C173        C174   1.395       .  A
C173        C472   1.406       .  A
C173        H176   1.083       .  S
C174       Br180   1.918       .  S
C181        C182   1.412       .  A
C181        C186   1.405   1_565  A
C182        C183   1.398       .  A
C182       Br198   1.920       .  S
C183        C184   1.400       .  A
C183        H187   1.083       .  S
C184        C188   1.472       .  S
C184        C185   1.406   1_565  A
C185        C186   1.398       .  A
C185       Br197   1.918       .  S
C186        H189   1.083       .  S
C188        C190   1.398       .  A
C188        C194   1.406   1_565  A
C190        C191   1.396       .  A
C190        H195   1.082       .  S
C191        C192   1.413       .  A
C191       Br199   1.920       .  S
C192        C193   1.405   1_565  A
C193        C194   1.400       .  A
C193        H196   1.083       .  S
C194       Br200   1.917       .  S
C201        C202   1.414   1_565  A
C201        C506   1.405   1_554  A
C202        C203   1.400       .  A
C202       Br218   1.921       .  S
C203        C504   1.403   1_545  A
C203        H207   1.083       .  S
C204        C508   1.478       .  S
C204        C205   1.407       .  A
C204        C503   1.402   1_565  A
C205        C206   1.397       .  A
C205       Br217   1.920       .  S
C206        C501   1.405       .  A
C206        H209   1.084       .  S
C208        C504   1.478       .  S
C208        C214   1.408       .  A
C208        C510   1.403   1_564  A
C210        C211   1.398       .  A
C210        C508   1.403   1_545  A
C210        H215   1.082       .  S
C211        C512   1.408   1_545  A
C211       Br219   1.920       .  S
C212        C213   1.404   1_556  A
C212        C511   1.408   1_565  A
C213        C214   1.399       .  A
C213        H216   1.084       .  S
C214       Br220   1.918       .  S
C221        C222   1.417       .  A
C221        C226   1.407       .  A
C222        C223   1.397       .  A
C222       Br238   1.922       .  S
C223        C224   1.399       .  A
C223        H227   1.084       .  S
C224        C228   1.468       .  S
C224        C225   1.403       .  A
C225        C226   1.395       .  A
C225       Br237   1.918       .  S
C226        H229   1.083       .  S
C228        C230   1.399       .  A
C228        C234   1.403       .  A
C230        C231   1.397       .  A
C230        H235   1.084       .  S
C231        C232   1.417       .  A
C231       Br239   1.922       .  S
C232        C233   1.406       .  A
C233        C234   1.394       .  A
C233        H236   1.083       .  S
C234       Br240   1.915       .  S
C241        C246   1.408       .  A
C241        C542   1.417   1_554  A
C242        C243   1.398       .  A
C242        C541   1.417       .  A
C242       Br258   1.921       .  S
C243        C544   1.400       .  A
C243        H247   1.084       .  S
C244        C548   1.474       .  S
C244        C245   1.405       .  A
C244        C543   1.400   1_554  A
C245        C246   1.396       .  A
C245       Br257   1.919       .  S
C246        H249   1.083       .  S
C248        C544   1.473       .  S
C248        C254   1.407       .  A
C248        C550   1.400       .  A
C250        C251   1.396       .  A
C250        C548   1.400       .  A
C250        H255   1.084       .  S
C251        C252   1.412       .  A
C251       Br259   1.919       .  S
C252        C553   1.405   1_554  A
C253        C254   1.398       .  A
C253        C552   1.405       .  A
C253        H256   1.084       .  S
C254       Br260   1.918       .  S
C261        C262   1.415       .  A
C261        C266   1.408   1_565  A
C262        C263   1.400       .  A
C262       Br278   1.921       .  S
C263        C264   1.402   1_565  A
C263        H267   1.084       .  S
C264        C268   1.475       .  S
C264        C265   1.404       .  A
C265        C266   1.396       .  A
C265       Br277   1.919       .  S
C266        H269   1.084       .  S
C268        C270   1.399   1_545  A
C268        C274   1.405       .  A
C270        C271   1.399       .  A
C270        H275   1.084       .  S
C271        C272   1.419   1_565  A
C271       Br279   1.922       .  S
C272        C273   1.409       .  A
C273        C274   1.398       .  A
C273        H276   1.083       .  S
C274       Br280   1.918       .  S
C281        C282   1.415   1_545  A
C281        C586   1.407   1_554  A
C282        C283   1.399       .  A
C282       Br298   1.921       .  S
C283        C584   1.401   1_564  A
C283        H287   1.084       .  S
C284        C588   1.473       .  S
C284        C285   1.404       .  A
C284        C583   1.401   1_545  A
C285        C286   1.396       .  A
C285       Br297   1.918       .  S
C286        C581   1.407       .  A
C286        H289   1.084       .  S
C288        C584   1.473       .  S
C288        C294   1.405       .  A
C288        C590   1.398   1_545  A
C290        C291   1.397       .  A
C290        C588   1.398   1_565  A
C290        H295   1.084       .  S
C291        C592   1.417   1_565  A
C291       Br299   1.922       .  S
C292        C293   1.409       .  A
C292        C591   1.417   1_545  A
C293        C294   1.399       .  A
C293        H296   1.083   1_556  S
C294       Br300   1.919   1_556  S
O301        C311   1.278       .  A
O302        C312   1.278       .  A
O302       Cu309   2.009       .  S
O303       Cu309   2.006       .  S
O305       Cu310   2.010       .  S
O307        C312   1.277   1_565  A
O308        C311   1.277   1_565  A
O308       Cu310   2.005       .  S
C311        C326   1.466       .  S
C312        C325   1.466       .  S
C313        C592   1.485       .  S
C314        C369   1.467       .  S
O315        C325   1.277       .  A
O315       Cu323   2.005       .  S
O316        C326   1.277       .  A
O316       Cu323   2.005       .  S
O317        C327   1.280       .  A
O317       Cu323   2.014       .  S
O318        C328   1.278   1_545  A
O318       Cu323   2.012       .  S
O319        C328   1.277       .  A
O319       Cu324   2.003       .  S
O320        C327   1.276   1_565  A
O320       Cu324   2.003       .  S
O321        C326   1.278   1_565  A
O321       Cu324   2.011       .  S
O322        C325   1.278   1_565  A
O322       Cu324   2.009       .  S
Cu323      Cu324   2.374   1_545  S
C327        C572   1.487       .  S
C328        C384   1.466       .  S
O329        C339   1.277       .  A
O329       Cu337   2.009       .  S
O330        C340   1.278       .  A
O330       Cu337   2.005       .  S
O331        C341   1.277       .  A
O331       Cu337   2.006       .  S
O332        C342   1.278       .  A
O333        C342   1.277       .  A
O333       Cu338   2.008   1_556  S
O334        C341   1.277       .  A
O335        C340   1.277       .  A
O336       Cu338   2.004       .  S
C339        C541   1.485       .  S
C340        C426   1.463       .  S
C341        C353   1.465       .  S
C342        C354   1.467       .  S
O343        C353   1.277       .  A
O343       Cu351   2.007       .  S
O344        C354   1.277       .  A
O344       Cu351   2.008       .  S
O345        C355   1.276       .  A
O345       Cu351   2.001       .  S
O346        C356   1.277       .  A
O346       Cu351   2.006       .  S
O347        C356   1.277       .  A
O347       Cu352   2.004       .  S
O348        C355   1.278       .  A
O348       Cu352   1.999       .  S
O349        C354   1.278       .  A
O349       Cu352   2.009       .  S
O350        C353   1.277       .  A
O350       Cu352   2.007       .  S
Cu351      Cu352   2.375       .  S
C355        C521   1.480       .  S
C356        C439   1.464       .  S
O357        C367   1.278       .  A
O358        C368   1.277       .  A
O358       Cu365   2.006       .  S
O359       Cu365   2.010       .  S
O361       Cu366   2.008       .  S
O363        C368   1.278   1_545  A
O364        C367   1.277   1_545  A
O364       Cu366   2.005       .  S
C367        C381   1.466       .  S
C368        C382   1.466       .  S
C370        C512   1.472       .  S
O371        C381   1.277       .  A
O371       Cu379   2.006       .  S
O372        C382   1.277       .  A
O372       Cu379   2.007       .  S
O373        C383   1.277       .  A
O373       Cu379   2.006       .  S
O374        C384   1.278       .  A
O374       Cu379   2.008       .  S
O375        C384   1.277   1_545  A
O375       Cu380   2.007       .  S
O376        C383   1.277   1_545  A
O376       Cu380   2.004       .  S
O377        C382   1.277   1_545  A
O377       Cu380   2.007       .  S
O378        C381   1.278   1_545  A
O378       Cu380   2.011       .  S
Cu379      Cu380   2.376   1_565  S
C383        C481   1.473       .  S
O385        C395   1.277       .  A
O385       Cu393   2.000       .  S
O386        C396   1.277       .  A
O386       Cu393   1.998   1_545  S
O387        C397   1.278       .  A
O387       Cu393   2.012       .  S
O388        C398   1.278       .  A
O388       Cu393   2.011   1_545  S
O389       Cu394   2.000       .  S
O390       Cu394   2.004       .  S
O391       Cu394   2.005       .  S
O392       Cu394   2.005   1_565  S
C395        C552   1.474       .  S
C396        C461   1.477       .  S
C397        C501   1.479       .  S
C398        C581   1.481   1_655  S
O399        C409   1.279       .  A
O399       Cu407   2.020       .  S
O400        C410   1.279       .  A
O400       Cu407   2.019       .  S
O401        C411   1.277       .  A
O401       Cu407   1.994   1_545  S
O402        C412   1.275       .  A
O402       Cu407   1.996       .  S
O403        C412   1.278       .  A
O403       Cu408   2.003       .  S
O404        C411   1.277       .  A
O404       Cu408   2.005   1_545  S
O405        C410   1.277       .  A
O405       Cu408   1.994       .  S
O406        C409   1.275       .  A
O406       Cu408   1.992       .  S
Cu407      Cu408   2.371       .  S
C409        C492   1.476       .  S
C410        C561   1.482   1_655  S
C411        C441   1.477       .  S
C412        C532   1.477       .  S
O413        C423   1.278       .  A
O414        C424   1.278       .  A
O414       Cu421   2.009   1_556  S
O415       Cu421   1.996       .  S
O416        C426   1.276       .  A
O417        C426   1.278       .  A
O417       Cu422   2.007       .  S
O418        C425   1.278       .  A
O418       Cu422   2.003       .  S
O419        C424   1.277       .  A
O420        C423   1.277       .  A
O420       Cu422   2.006       .  S
C423        C438   1.466       .  S
C424        C437   1.466       .  S
C425        C472   1.479       .  S
O427        C437   1.278       .  A
O427       Cu435   2.008       .  S
O428        C438   1.278       .  A
O428       Cu435   2.010       .  S
O429        C439   1.278       .  A
O429       Cu435   2.006       .  S
O430        C440   1.279       .  A
O430       Cu435   2.011       .  S
O431        C440   1.277       .  A
O431       Cu436   2.005       .  S
O432        C439   1.277       .  A
O432       Cu436   2.003       .  S
O433        C438   1.277       .  A
O433       Cu436   2.006       .  S
O434        C437   1.277       .  A
O434       Cu436   2.007       .  S
Cu435      Cu436   2.374       .  S
C440        C452   1.487       .  S
C441        C442   1.414       .  A
C441        C446   1.406       .  A
C442        C443   1.398       .  A
C442       Br458   1.921       .  S
C443        C444   1.401       .  A
C443        H447   1.084       .  S
C444        C448   1.472       .  S
C444        C445   1.404       .  A
C445        C446   1.395       .  A
C445       Br457   1.916       .  S
C446        H449   1.084       .  S
C448        C450   1.398       .  A
C448        C454   1.404       .  A
C450        C451   1.398       .  A
C450        H455   1.084       .  S
C451        C452   1.418       .  A
C451       Br459   1.922       .  S
C452        C453   1.409       .  A
C453        C454   1.398       .  A
C453        H456   1.083       .  S
C454       Br460   1.919   1_655  S
C461        C466   1.407       .  A
C462        C463   1.397       .  A
C462       Br478   1.921       .  S
C463        H467   1.084       .  S
C464        C465   1.404       .  A
C465        C466   1.396       .  A
C465       Br477   1.919       .  S
C466        H469   1.084       .  S
C468        C474   1.404   1_554  A
C470        C471   1.397       .  A
C470        H475   1.084       .  S
C471        C472   1.416       .  A
C471       Br479   1.922       .  S
C473        C474   1.395   1_554  A
C473        H476   1.083   1_554  S
C474       Br480   1.918       .  S
C481        C482   1.412       .  A
C481        C486   1.405   1_565  A
C482        C483   1.398       .  A
C482       Br498   1.920       .  S
C483        C484   1.400       .  A
C483        H487   1.083       .  S
C484        C488   1.472       .  S
C484        C485   1.406   1_565  A
C485        C486   1.398       .  A
C485       Br497   1.918       .  S
C486        H489   1.083       .  S
C488        C490   1.398       .  A
C488        C494   1.406   1_565  A
C490        C491   1.396       .  A
C490        H495   1.082       .  S
C491        C492   1.414       .  A
C491       Br499   1.920       .  S
C492        C493   1.405   1_565  A
C493        C494   1.400       .  A
C493        H496   1.083       .  S
C494       Br500   1.917       .  S
C501        C502   1.414   1_565  A
C502        C503   1.400       .  A
C502       Br518   1.921       .  S
C503        H507   1.083       .  S
C504        C505   1.407   1_554  A
C505        C506   1.397       .  A
C505       Br517   1.920       .  S
C506        H509   1.084       .  S
C508        C514   1.408       .  A
C510        C511   1.398       .  A
C510        H515   1.082       .  S
C511       Br519   1.920       .  S
C512        C513   1.404       .  A
C513        C514   1.399       .  A
C513        H516   1.084       .  S
C514       Br520   1.918       .  S
C521        C522   1.417       .  A
C521        C526   1.407       .  A
C522        C523   1.397       .  A
C522       Br538   1.922       .  S
C523        C524   1.399       .  A
C523        H527   1.084       .  S
C524        C528   1.468       .  S
C524        C525   1.403       .  A
C525        C526   1.395       .  A
C525       Br537   1.918       .  S
C526        H529   1.083       .  S
C528        C530   1.399       .  A
C528        C534   1.403       .  A
C530        C531   1.397       .  A
C530        H535   1.084       .  S
C531        C532   1.417       .  A
C531       Br539   1.922       .  S
C532        C533   1.406       .  A
C533        C534   1.394       .  A
C533        H536   1.084       .  S
C534       Br540   1.915       .  S
C541        C546   1.408       .  A
C542        C543   1.398       .  A
C542       Br558   1.921       .  S
C543        H547   1.084       .  S
C544        C545   1.405       .  A
C545        C546   1.396       .  A
C545       Br557   1.919       .  S
C546        H549   1.083       .  S
C548        C554   1.407   1_554  A
C550        C551   1.396       .  A
C550        H555   1.084       .  S
C551        C552   1.412       .  A
C551       Br559   1.919       .  S
C553        C554   1.398       .  A
C553        H556   1.084       .  S
C554       Br560   1.918       .  S
C561        C562   1.415       .  A
C561        C566   1.408   1_565  A
C562        C563   1.401       .  A
C562       Br578   1.921       .  S
C563        C564   1.402   1_565  A
C563        H567   1.084       .  S
C564        C568   1.475       .  S
C564        C565   1.404       .  A
C565        C566   1.396       .  A
C565       Br577   1.919       .  S
C566        H569   1.084       .  S
C568        C570   1.399   1_545  A
C568        C574   1.405       .  A
C570        C571   1.399       .  A
C570        H575   1.084       .  S
C571        C572   1.419   1_565  A
C571       Br579   1.922       .  S
C572        C573   1.409       .  A
C573        C574   1.398       .  A
C573        H576   1.083       .  S
C574       Br580   1.918       .  S
C581        C582   1.415   1_545  A
C582        C583   1.399       .  A
C582       Br598   1.921       .  S
C583        H587   1.084       .  S
C584        C585   1.404       .  A
C585        C586   1.396       .  A
C585       Br597   1.918       .  S
C586        H589   1.084       .  S
C588        C594   1.405       .  A
C590        C591   1.397       .  A
C590        H595   1.084       .  S
C591       Br599   1.922       .  S
C592        C593   1.409       .  A
C593        C594   1.399       .  A
C593        H596   1.083       .  S
C594       Br600   1.919       .  S
