geometry optimzed in LAMMPS
_audit_creation_date              2020-11-30 
_audit_creation_method            'lammps2cif' 
_symmetry_space_group_name_H-M    'P1' 
_symmetry_Int_Tables_number       1 
_symmetry_cell_setting            triclinic 
loop_ 
_symmetry_equiv_pos_as_xyz 
  x,y,z 
_cell_length_a                    40.35140039 
_cell_length_b                    40.35139913454305 
_cell_length_c                    36.61471278468085 
_cell_angle_alpha                 89.93872576223038 
_cell_angle_beta                  90.00409414143813 
_cell_angle_gamma                 89.93589703593116 
loop_ 
_atom_site_label 
_atom_site_type_symbol 
_atom_site_fract_x 
_atom_site_fract_y 
_atom_site_fract_z 
_atom_site_charge 
N1          N  0.46434517  0.03555227  0.99457091    -0.34000
N2          N  0.03655947  0.03524546  0.50142732    -0.54500
N3          N  0.03668470  0.46364389  0.99781548    -0.34000
N4          N  0.46448561  0.46278127  0.00095875    -0.54500
C5          C  0.47049141  0.06797026  0.49467285     0.29600
C6          C  0.43168847  0.02990763  0.00022624     0.29600
C7          C  0.06925373  0.46909693  0.49649961     0.29600
C8          C  0.03093177  0.43127958  0.00538854     0.29600
C9          C  0.03122344  0.06801814  0.50647090     0.38200
C10         C  0.06932991  0.03000257  0.50665958     0.38200
C11         C  0.43173717  0.46816323  0.00611467     0.38200
C12         C  0.46965935  0.43005380  0.00648396     0.38200
C13         C  0.44129005  0.08308789  0.48352905    -0.19300
C14         C  0.41613669  0.05949524  0.00921279    -0.19300
C15         C  0.08433593  0.43971124  0.48593243    -0.18500
C16         C  0.06027424  0.41639519  0.01646822    -0.19300
C17         C  0.06082445  0.08373820  0.51475952    -0.20300
C18         C  0.08496489  0.05966602  0.51483867    -0.20300
C19         C  0.41595860  0.43865211  0.01466470    -0.20300
C20         C  0.43997443  0.41449609  0.01484893    -0.20300
C21         C  0.50088570  0.08472570  0.50041340    -0.15700
C22         C  0.41523932  0.99916770  0.99604659    -0.15700
C23         C  0.50031061  0.41367917  0.00159655    -0.15700
C24         C  0.08565475  0.99940225  0.50103013    -0.15700
H25         H  0.43762515  0.10890606  0.47655262     0.17200
H26         H  0.39009275  0.06340245  0.01484915     0.17200
H27         H  0.11009183  0.43596454  0.47876928     0.17200
H28         H  0.06401666  0.39071419  0.02399180     0.17200
H29         H  0.06476918  0.10993101  0.51935597     0.15500
H30         H  0.11113379  0.06367523  0.51956529     0.15500
H31         H  0.38980788  0.43483285  0.01969802     0.15500
H32         H  0.43597106  0.38840943  0.02014419     0.15500
H33         H  0.48118305  0.01883508  0.98363577     0.28800
H34         H  0.02024951  0.47972118  0.98507048     0.28800
N35         N  0.46418148  0.03598354  0.25425074    -0.34000
N36         N  0.03638364  0.03574153  0.24918477    -0.54500
N37         N  0.03651510  0.46374271  0.25352227    -0.34000
N38         N  0.46482947  0.46349632  0.24890951    -0.54500
C39         C  0.46997125  0.06847090  0.24742883     0.29600
C40         C  0.43175383  0.03018461  0.24726480     0.29600
C41         C  0.06887771  0.46963994  0.24606726     0.29600
C42         C  0.03052002  0.43137940  0.24627504     0.29600
C43         C  0.03130956  0.06858530  0.24417022     0.38200
C44         C  0.06922823  0.03035816  0.24461220     0.38200
C45         C  0.43223925  0.46883653  0.24259961     0.38200
C46         C  0.47037983  0.43091931  0.24291583     0.38200
C47         C  0.44070429  0.08361203  0.23651825    -0.19300
C48         C  0.41661461  0.05948928  0.23644133    -0.19300
C49         C  0.08373968  0.44052153  0.23430737    -0.19300
C50         C  0.05956396  0.41640877  0.23443024    -0.19300
C51         C  0.06116245  0.08422451  0.23683791    -0.20300
C52         C  0.08515824  0.06002494  0.23707494    -0.20300
C53         C  0.41692199  0.43945069  0.23271106    -0.20300
C54         C  0.44110440  0.41540121  0.23291597    -0.20300
C55         C  0.50046645  0.08516260  0.25261681    -0.15700
C56         C  0.41509135  0.99964844  0.25230640    -0.15700
C57         C  0.50083208  0.41465902  0.24947687    -0.15700
C58         C  0.08533190  0.99950994  0.24965190    -0.15700
H59         H  0.43699530  0.10943200  0.22957422     0.17200
H60         H  0.39081906  0.06318769  0.22940848     0.17200
H61         H  0.10942033  0.43692444  0.22673536     0.17200
H62         H  0.06307805  0.39069118  0.22698428     0.17200
H63         H  0.06529752  0.11039989  0.23225951     0.15500
H64         H  0.11140090  0.06392447  0.23274660     0.15500
H65         H  0.39095039  0.43562563  0.22666727     0.15500
H66         H  0.43743377  0.38937890  0.22704303     0.15500
H67         H  0.48047109  0.01956618  0.26671638     0.28800
H68         H  0.02043694  0.47987117  0.26670757     0.28800
O69         O  0.47271005  0.20156483  0.00009526    -0.71800
O70         O  0.47298310  0.29727519  0.49988799    -0.71800
O71         O  0.47289989  0.24979195  0.44744924    -0.71900
O72         O  0.47254408  0.24941051  0.05215297    -0.71900
O73         O  0.02646334  0.24926524  0.05246474    -0.71900
O74         O  0.02715163  0.24895599  0.44771364    -0.71800
O75         O  0.02698779  0.29701429  0.00043494    -0.71800
O76         O  0.02733741  0.20155601  0.50034411    -0.71900
Ni77       Ni  0.47056743  0.24909447  0.99981807     1.25400
Ni78       Ni  0.02885505  0.24950246  0.00015368     1.25400
C79         C  0.50043648  0.18611893  0.00002900     0.90400
C80         C  0.50005248  0.31217697  0.99947124     0.90300
C81         C  0.50056964  0.24966499  0.43037821     0.90300
C82         C  0.50023394  0.24969050  0.06919631     0.90500
O83         O  0.47293711  0.20248506  0.24949822    -0.71800
O84         O  0.47324304  0.29765680  0.25016047    -0.71800
O85         O  0.47300740  0.25046143  0.19751293    -0.71900
O86         O  0.47304651  0.24970832  0.30208144    -0.71900
O87         O  0.02677763  0.24975996  0.30227258    -0.71900
O88         O  0.02636041  0.24991453  0.19754640    -0.71800
O89         O  0.02661105  0.29736811  0.24997367    -0.71800
O90         O  0.02681334  0.20232196  0.24983074    -0.71900
Ni91       Ni  0.47107603  0.25008641  0.24979839     1.25400
Ni92       Ni  0.02860558  0.24985195  0.24989564     1.25400
C93         C  0.50056659  0.18683685  0.24960084     0.90400
C94         C  0.50097337  0.31305712  0.25024064     0.90300
C95         C  0.50065520  0.25041975  0.18042245     0.90300
C96         C  0.50071541  0.24952222  0.31913844     0.90500
O97         O  0.29794553  0.02686256  0.49941546    -0.71800
O98         O  0.20333306  0.02693245  0.00053278    -0.71800
O99         O  0.25125648  0.02688872  0.05226744    -0.71900
O100        O  0.25033447  0.02667027  0.44716740    -0.71900
O101        O  0.25147865  0.47325588  0.44783690    -0.71900
O102        O  0.25054855  0.47322435  0.05272922    -0.71800
O103        O  0.20359838  0.47228142  0.49986813    -0.71800
O104        O  0.29829632  0.47280479  0.00061690    -0.71900
Ni105      Ni  0.25036743  0.02862164  0.49946377     1.25400
Ni106      Ni  0.25119734  0.47063814  0.50015480     1.25400
C107        C  0.31364463  0.99927546  0.49943696     0.90400
C108        C  0.18736248  0.99880262  0.49942834     0.90300
C109        C  0.25121577  0.99923794  0.06939644     0.90300
C110        C  0.25046206  0.99898745  0.43016001     0.90500
O111        O  0.29764102  0.02709348  0.25037922    -0.71800
O112        O  0.20246858  0.02639104  0.24952505    -0.71800
O113        O  0.24972151  0.02658572  0.30214500    -0.71900
O114        O  0.25043800  0.02689859  0.19763421    -0.71900
O115        O  0.25043690  0.47338125  0.19803248    -0.71900
O116        O  0.25118572  0.47366106  0.30276393    -0.71800
O117        O  0.20322755  0.47348559  0.25073758    -0.71800
O118        O  0.29836338  0.47323530  0.24994890    -0.71900
Ni119      Ni  0.25003998  0.02872305  0.24991111     1.25400
Ni120      Ni  0.25079664  0.47147719  0.25039253     1.25400
C121        C  0.31340580  0.99953571  0.25057327     0.90400
C122        C  0.18711002  0.99863893  0.24940609     0.90300
C123        C  0.24992630  0.99886650  0.31911534     0.90300
C124        C  0.25081277  0.99926403  0.18054678     0.90500
C125        C  0.25003962  0.99882050  0.35820029    -0.10600
C126        C  0.25027261  0.99894150  0.39106961    -0.12200
C127        C  0.25109924  0.99934700  0.14142450    -0.10600
C128        C  0.25123852  0.99931063  0.10853030    -0.12200
C129        C  0.50057763  0.24952057  0.39121369    -0.10600
C130        C  0.50066984  0.24942421  0.35829916    -0.12200
C131        C  0.50031210  0.25019087  0.10835185    -0.10600
C132        C  0.50053955  0.25046787  0.14126243    -0.12200
C133        C  0.15139488  0.99852622  0.24944053    -0.10600
C134        C  0.12141413  0.99889228  0.24962824    -0.12200
C135        C  0.37904100  0.99979800  0.25174171    -0.10600
C136        C  0.34908251  0.99977173  0.25119565    -0.12200
C137        C  0.50112504  0.37865380  0.25016572    -0.10600
C138        C  0.50111811  0.34870932  0.25037693    -0.12200
C139        C  0.50047591  0.12120599  0.25126963    -0.10600
C140        C  0.50049149  0.15115748  0.25020608    -0.12200
C141        C  0.12170640  0.99911796  0.50020630    -0.10600
C142        C  0.15167051  0.99881916  0.49966983    -0.12200
C143        C  0.37929709  0.99959136  0.49959381    -0.10600
C144        C  0.34933146  0.99948754  0.49945175    -0.12200
C145        C  0.50021246  0.37769691  0.00046253    -0.10600
C146        C  0.50003386  0.34778320  0.99972260    -0.12200
C147        C  0.50056399  0.15052704  0.99939223    -0.10600
C148        C  0.50065212  0.12062790  0.99835079    -0.12200
N149        N  0.46463700  0.03550577  0.50155862    -0.34000
N150        N  0.03696175  0.03567477  0.00059715    -0.54500
N151        N  0.03677205  0.46336188  0.50343731    -0.34000
N152        N  0.46483688  0.46363321  0.50180634    -0.54500
C153        C  0.46990340  0.06814889  0.00072132     0.29600
C154        C  0.43217550  0.02973994  0.49464413     0.29600
C155        C  0.06920477  0.46960910  0.00427903     0.29600
C156        C  0.03093496  0.43083577  0.49684452     0.29600
C157        C  0.03177112  0.06876161  0.00266110     0.38200
C158        C  0.06991664  0.03077924  0.00481377     0.38200
C159        C  0.43189854  0.46875777  0.50578812     0.38200
C160        C  0.46991751  0.43067950  0.50564202     0.38200
C161        C  0.44021257  0.08358795  0.00951926    -0.19300
C162        C  0.41714598  0.05900685  0.48353412    -0.19300
C163        C  0.08438098  0.44053557  0.01577390    -0.18500
C164        C  0.06021553  0.41563060  0.48614345    -0.19300
C165        C  0.06171386  0.08500158  0.00761034    -0.20300
C166        C  0.08582330  0.06099771  0.00896954    -0.20300
C167        C  0.41591609  0.43884324  0.51178925    -0.20300
C168        C  0.43996297  0.41474099  0.51163533    -0.20300
C169        C  0.50066950  0.08465667  0.99712239    -0.15700
C170        C  0.41535582  0.99932203  0.50009825    -0.15700
C171        C  0.50077892  0.41446600  0.50136585    -0.15700
C172        C  0.08619144  0.99970896  0.00309253    -0.15700
H173        H  0.43623209  0.10956381  0.01544506     0.17200
H174        H  0.39135147  0.06274252  0.47652285     0.17200
H175        H  0.11022612  0.43698047  0.02267543     0.17200
H176        H  0.06386981  0.38982111  0.47918079     0.17200
H177        H  0.06582860  0.11142593  0.00980930     0.15500
H178        H  0.11210501  0.06535363  0.01238432     0.15500
H179        H  0.38959282  0.43470230  0.51513786     0.15500
H180        H  0.43576716  0.38841917  0.51493870     0.15500
H181        H  0.48084361  0.01923189  0.51426869     0.28800
H182        H  0.02040480  0.47987574  0.51556091     0.28800
N183        N  0.46453098  0.03535909  0.75311976    -0.34000
N184        N  0.03686846  0.03538842  0.74845174    -0.54500
N185        N  0.03692878  0.46311017  0.75366783    -0.34000
N186        N  0.46451557  0.46321763  0.74948473    -0.54500
C187        C  0.47023881  0.06800054  0.74722085     0.29600
C188        C  0.43202013  0.02971129  0.74643316     0.29600
C189        C  0.06933204  0.46882181  0.74641288     0.29600
C190        C  0.03104740  0.43061501  0.74719711     0.29600
C191        C  0.03166318  0.06834101  0.74459617     0.38200
C192        C  0.06983382  0.03037197  0.74446684     0.38200
C193        C  0.43140712  0.46824347  0.75073996     0.38200
C194        C  0.46928942  0.43008002  0.74833223     0.38200
C195        C  0.44081771  0.08338207  0.73723991    -0.19300
C196        C  0.41674024  0.05927895  0.73680501    -0.19300
C197        C  0.08435766  0.43945614  0.73568769    -0.19300
C198        C  0.06022338  0.41536926  0.73618218    -0.19300
C199        C  0.06157369  0.08438429  0.73870409    -0.20300
C200        C  0.08570856  0.06037239  0.73861359    -0.20300
C201        C  0.41503303  0.43803339  0.75039595    -0.20300
C202        C  0.43897591  0.41391272  0.74884208    -0.20300
C203        C  0.50082097  0.08463678  0.75215430    -0.15700
C204        C  0.41541834  0.99897482  0.75012500    -0.15700
C205        C  0.50045907  0.41399592  0.74877138    -0.15700
C206        C  0.08611258  0.99944557  0.74800521    -0.15700
H207        H  0.43700312  0.10934682  0.73106983     0.17200
H208        H  0.39088254  0.06313990  0.73016311     0.17200
H209        H  0.11011797  0.43567758  0.72855989     0.17200
H210        H  0.06384939  0.38949696  0.72948748     0.17200
H211        H  0.06565027  0.11069501  0.73512025     0.15500
H212        H  0.11198831  0.06458668  0.73497343     0.15500
H213        H  0.38856847  0.43375307  0.75121268     0.15500
H214        H  0.43452644  0.38746671  0.74864495     0.15500
H215        H  0.48097094  0.01869049  0.76476171     0.28800
H216        H  0.02071774  0.47954300  0.76618716     0.28800
O217        O  0.47294430  0.20205337  0.49964712    -0.71800
O218        O  0.47240926  0.29663633  0.99949633    -0.71800
O219        O  0.47260122  0.24883466  0.94749437    -0.71900
O220        O  0.47298675  0.24947539  0.55211967    -0.71900
O221        O  0.02767240  0.24944926  0.55234920    -0.71900
O222        O  0.02719055  0.24971981  0.94783444    -0.71800
O223        O  0.02753578  0.29672897  0.49975899    -0.71800
O224        O  0.02693294  0.20199668  0.99980356    -0.71900
Ni225      Ni  0.47096356  0.24966251  0.49977664     1.25400
Ni226      Ni  0.02939661  0.24914793  0.50002781     1.25400
C227        C  0.50061143  0.18646922  0.49965897     0.90400
C228        C  0.50067371  0.31276002  0.49984281     0.90300
C229        C  0.50030874  0.24882479  0.93048831     0.90300
C230        C  0.50068261  0.24938534  0.56915508     0.90500
O231        O  0.47321603  0.20174044  0.75007871    -0.71800
O232        O  0.47316815  0.29683046  0.74971127    -0.71800
O233        O  0.47322256  0.24913105  0.69754336    -0.71900
O234        O  0.47312557  0.24935259  0.80215545    -0.71900
O235        O  0.02784652  0.24881164  0.80246864    -0.71900
O236        O  0.02802948  0.24986816  0.69787212    -0.71800
O237        O  0.02799786  0.29684450  0.75076310    -0.71800
O238        O  0.02791056  0.20170893  0.74965944    -0.71900
Ni239      Ni  0.47120602  0.24927322  0.74985996     1.25400
Ni240      Ni  0.02993206  0.24929149  0.75018457     1.25400
C241        C  0.50088184  0.18619236  0.75024116     0.90400
C242        C  0.50082723  0.31234489  0.74974598     0.90300
C243        C  0.50090004  0.24905616  0.68049170     0.90300
C244        C  0.50077016  0.24928796  0.81926241     0.90500
O245        O  0.29835768  0.02670140  0.99950175    -0.71800
O246        O  0.20281183  0.02649514  0.49946871    -0.71800
O247        O  0.25042493  0.02652181  0.55180130    -0.71900
O248        O  0.25049030  0.02672943  0.94759144    -0.71900
O249        O  0.25091810  0.47278038  0.94813120    -0.71900
O250        O  0.25098477  0.47202681  0.55251663    -0.71800
O251        O  0.20321916  0.47303508  0.00015422    -0.71800
O252        O  0.29871838  0.47288712  0.50050902    -0.71900
Ni253      Ni  0.25086018  0.02879380  0.99995994     1.25400
Ni254      Ni  0.25075493  0.47099313  0.00043321     1.25400
C255        C  0.31383174  0.99900133  0.99939462     0.90400
C256        C  0.18777265  0.99930847  0.00088959     0.90300
C257        C  0.25057955  0.99879812  0.56881960     0.90300
C258        C  0.25048437  0.99903610  0.93056980     0.90500
O259        O  0.29823034  0.02653663  0.74967691    -0.71800
O260        O  0.20319771  0.02628135  0.74904315    -0.71800
O261        O  0.25045089  0.02650383  0.80181821    -0.71900
O262        O  0.25097504  0.02622574  0.69708664    -0.71900
O263        O  0.25145012  0.47179127  0.69838604    -0.71900
O264        O  0.25045257  0.47228833  0.80294987    -0.71800
O265        O  0.20338407  0.47188829  0.75012978    -0.71800
O266        O  0.29849016  0.47222437  0.75127109    -0.71900
Ni267      Ni  0.25070631  0.02835906  0.74941339     1.25400
Ni268      Ni  0.25095371  0.47006606  0.75069130     1.25400
C269        C  0.31386259  0.99892398  0.74981263     0.90400
C270        C  0.18772931  0.99861193  0.74893948     0.90300
C271        C  0.25048667  0.99887430  0.81903678     0.90300
C272        C  0.25112081  0.99851608  0.68012355     0.90500
C273        C  0.25043480  0.99895960  0.85831505    -0.10600
C274        C  0.25044162  0.99899252  0.89129689    -0.12200
C275        C  0.25104784  0.99848164  0.64093020    -0.10600
C276        C  0.25081319  0.99865127  0.60800151    -0.12200
C277        C  0.50042054  0.24886745  0.89133229    -0.10600
C278        C  0.50065018  0.24908051  0.85842167    -0.12200
C279        C  0.50075437  0.24913324  0.60835458    -0.10600
C280        C  0.50087369  0.24900310  0.64129134    -0.12200
C281        C  0.15208794  0.99871773  0.74850483    -0.10600
C282        C  0.12214876  0.99916363  0.74825421    -0.12200
C283        C  0.37940875  0.99918284  0.74971303    -0.10600
C284        C  0.34948139  0.99908731  0.74973590    -0.12200
C285        C  0.50067894  0.37794183  0.74948786    -0.10600
C286        C  0.50079014  0.34799552  0.74971763    -0.12200
C287        C  0.50070309  0.12064464  0.75124674    -0.10600
C288        C  0.50082600  0.15057040  0.75065406    -0.12200
C289        C  0.12222397  0.99961084  0.00255380    -0.10600
C290        C  0.15215253  0.99944264  0.00179380    -0.12200
C291        C  0.37928539  0.99908908  0.99728930    -0.10600
C292        C  0.34940105  0.99897729  0.99847293    -0.12200
C293        C  0.50089806  0.37840759  0.50050915    -0.10600
C294        C  0.50076770  0.34844587  0.50005088    -0.12200
C295        C  0.50062429  0.15076986  0.49969201    -0.10600
C296        C  0.50070360  0.12079629  0.49990505    -0.12200
N297        N  0.46474573  0.53494582  0.00243432    -0.34000
N298        N  0.03689976  0.53578163  0.50160216    -0.54500
N299        N  0.03698982  0.96323950  0.00549335    -0.34000
N300        N  0.46429065  0.96316887  0.99730351    -0.54500
C301        C  0.47076447  0.56805738  0.49445688     0.29600
C302        C  0.43254956  0.52898253  0.99436934     0.29600
C303        C  0.06881400  0.96916136  0.49493667     0.29600
C304        C  0.03153099  0.93043097  0.00051841     0.29600
C305        C  0.03187796  0.56876776  0.50537443     0.38200
C306        C  0.06990797  0.53066750  0.50487207     0.38200
C307        C  0.43154908  0.96838033  0.99191634     0.38200
C308        C  0.46950260  0.93029194  0.99297616     0.38200
C309        C  0.44157141  0.58295627  0.48293668    -0.19300
C310        C  0.41782567  0.55789344  0.98177462    -0.19300
C311        C  0.08364354  0.94025951  0.48248388    -0.18500
C312        C  0.06144178  0.91475676  0.99322106    -0.19300
C313        C  0.06190824  0.58474746  0.51056693    -0.20300
C314        C  0.08596981  0.56065432  0.51022267    -0.20300
C315        C  0.41581816  0.93860341  0.98447906    -0.20300
C316        C  0.43984130  0.91450199  0.98511661    -0.20300
C317        C  0.50111698  0.58492627  0.49950681    -0.15700
C318        C  0.41558609  0.49882666  0.00046686    -0.15700
C319        C  0.50016646  0.91399507  0.99833641    -0.15700
C320        C  0.08603322  0.49971276  0.50078467    -0.15700
H321        H  0.43794221  0.60857131  0.47507642     0.17200
H322        H  0.39230053  0.56133487  0.97349735     0.17200
H323        H  0.10929661  0.93675911  0.47474405     0.17200
H324        H  0.06556546  0.88862640  0.98832799     0.17200
H325        H  0.06612865  0.61108420  0.51362883     0.15500
H326        H  0.11233881  0.56483703  0.51301591     0.15500
H327        H  0.38969007  0.93459383  0.97948388     0.15500
H328        H  0.43582978  0.88828796  0.98074073     0.15500
H329        H  0.48051480  0.51903906  0.01638407     0.28800
H330        H  0.01992884  0.98029034  0.01502710     0.28800
N331        N  0.46495034  0.53532229  0.24735882    -0.34000
N332        N  0.03650749  0.53584785  0.25194435    -0.54500
N333        N  0.03594990  0.96355838  0.24824297    -0.34000
N334        N  0.46413789  0.96358720  0.25129207    -0.54500
C335        C  0.47103235  0.56745379  0.25551988     0.29600
C336        C  0.43284234  0.52922415  0.25571073     0.29600
C337        C  0.06835457  0.96926692  0.25549918     0.29600
C338        C  0.02991634  0.93120241  0.25551154     0.29600
C339        C  0.03109824  0.56854040  0.25753635     0.38200
C340        C  0.06925807  0.53060763  0.25733876     0.38200
C341        C  0.43142625  0.96888757  0.25693269     0.38200
C342        C  0.46941635  0.93076564  0.25631887     0.38200
C343        C  0.44243417  0.58196534  0.26919548    -0.19300
C344        C  0.41832938  0.55783702  0.26930954    -0.19300
C345        C  0.08315328  0.94010344  0.26729595    -0.19300
C346        C  0.05891764  0.91611818  0.26733831    -0.19300
C347        C  0.06060300  0.58420608  0.26629202    -0.20300
C348        C  0.08477547  0.56019394  0.26613428    -0.20300
C349        C  0.41578922  0.93921470  0.26514486    -0.20300
C350        C  0.43983693  0.91509136  0.26477675    -0.20300
C351        C  0.50094627  0.58449845  0.24837209    -0.15700
C352        C  0.41583153  0.49926004  0.24879761    -0.15700
C353        C  0.50008235  0.91444831  0.25099374    -0.15700
C354        C  0.08569045  0.50006117  0.25168838    -0.15700
H355        H  0.43913880  0.60742901  0.27773142     0.17200
H356        H  0.39288669  0.56112133  0.27795096     0.17200
H357        H  0.10884377  0.93638496  0.27477138     0.17200
H358        H  0.06238255  0.89038608  0.27481193     0.17200
H359        H  0.06442568  0.61030904  0.27158122     0.15500
H360        H  0.11087323  0.56417394  0.27133657     0.15500
H361        H  0.38970576  0.93528759  0.27048733     0.15500
H362        H  0.43590875  0.88894538  0.26976100     0.15500
H363        H  0.48054548  0.51972570  0.23267713     0.28800
H364        H  0.01997700  0.97972061  0.23499727     0.28800
O365        O  0.47154088  0.70160818  0.00076465    -0.71800
O366        O  0.47232022  0.79716577  0.50016124    -0.71800
O367        O  0.47203765  0.74959307  0.44782991    -0.71900
O368        O  0.47130642  0.74972329  0.05255791    -0.71900
O369        O  0.02737359  0.74879530  0.05228631    -0.71900
O370        O  0.02740767  0.74917129  0.44727899    -0.71800
O371        O  0.02795657  0.79670266  0.00040507    -0.71800
O372        O  0.02740452  0.70208059  0.50014393    -0.71900
Ni373      Ni  0.46960466  0.74929942  0.00023456     1.25400
Ni374      Ni  0.02975269  0.74916062  0.99997652     1.25400
C375        C  0.49922829  0.68601943  0.00117433     0.90400
C376        C  0.49950518  0.81232813  0.99971670     0.90300
C377        C  0.49970414  0.74935289  0.43074094     0.90300
C378        C  0.49891449  0.74987867  0.06974707     0.90500
O379        O  0.47202076  0.70177656  0.24975068    -0.71800
O380        O  0.47230712  0.79710706  0.25094353    -0.71800
O381        O  0.47176665  0.75001032  0.19812949    -0.71900
O382        O  0.47226932  0.74885044  0.30261660    -0.71900
O383        O  0.02748804  0.74973196  0.30210649    -0.71900
O384        O  0.02726821  0.74918465  0.19744123    -0.71800
O385        O  0.02754231  0.79709246  0.24946835    -0.71800
O386        O  0.02730923  0.70193613  0.25019587    -0.71900
Ni387      Ni  0.47010537  0.74944090  0.25038227     1.25400
Ni388      Ni  0.02938847  0.74948843  0.24978366     1.25400
C389        C  0.49969533  0.68618032  0.24939337     0.90400
C390        C  0.50004466  0.81254691  0.25085473     0.90300
C391        C  0.49933470  0.75003976  0.18090363     0.90300
C392        C  0.49998632  0.74866742  0.31955308     0.90500
O393        O  0.29841038  0.52822061  0.50120017    -0.71800
O394        O  0.20317942  0.52836969  0.99990356    -0.71800
O395        O  0.25071474  0.52857645  0.05239668    -0.71900
O396        O  0.25107577  0.52859713  0.44852068    -0.71900
O397        O  0.25067344  0.97130839  0.44719872    -0.71900
O398        O  0.25107221  0.97153036  0.05243897    -0.71800
O399        O  0.20300589  0.97115991  0.49935901    -0.71800
O400        O  0.29831595  0.97135162  0.99978648    -0.71900
Ni401      Ni  0.25077931  0.52994025  0.50088959     1.25400
Ni402      Ni  0.25064518  0.96930515  0.49943674     1.25400
C403        C  0.31409706  0.50060686  0.50098355     0.90400
C404        C  0.18782389  0.49982939  0.50010048     0.90300
C405        C  0.25054664  0.50096877  0.06961858     0.90300
C406        C  0.25139402  0.50111884  0.43110164     0.90500
O407        O  0.29857699  0.52856060  0.24968226    -0.71800
O408        O  0.20313383  0.52880701  0.25053490    -0.71800
O409        O  0.25129582  0.52900353  0.30248339    -0.71900
O410        O  0.25048998  0.52873073  0.19786045    -0.71900
O411        O  0.25090481  0.97154060  0.19752507    -0.71900
O412        O  0.25015446  0.97122246  0.30205012    -0.71800
O413        O  0.20286250  0.97105890  0.24938534    -0.71800
O414        O  0.29808997  0.97175700  0.25027676    -0.71900
Ni415      Ni  0.25087348  0.53077170  0.25014408     1.25400
Ni416      Ni  0.25051084  0.96940351  0.24978872     1.25400
C417        C  0.31403694  0.50079301  0.24963210     0.90400
C418        C  0.18759803  0.50110465  0.25065814     0.90300
C419        C  0.25138066  0.50139738  0.31970496     0.90300
C420        C  0.25037382  0.50104083  0.18088636     0.90500
C421        C  0.25160943  0.50155106  0.35892999    -0.10600
C422        C  0.25160264  0.50151702  0.39188147    -0.12200
C423        C  0.25026450  0.50104123  0.14171105    -0.10600
C424        C  0.25034784  0.50109198  0.10878973    -0.12200
C425        C  0.49975009  0.74897212  0.39159756    -0.10600
C426        C  0.49999498  0.74866167  0.35869649    -0.12200
C427        C  0.49881743  0.75023651  0.10887931    -0.10600
C428        C  0.49904463  0.75029270  0.14177526    -0.12200
C429        C  0.15182537  0.50083297  0.25069108    -0.10600
C430        C  0.12181680  0.50016675  0.25091197    -0.12200
C431        C  0.37975407  0.49974780  0.24902820    -0.10600
C432        C  0.34976980  0.50042454  0.24925063    -0.12200
C433        C  0.50037613  0.87831960  0.25082218    -0.10600
C434        C  0.50025600  0.84830844  0.25091032    -0.12200
C435        C  0.50039288  0.62053239  0.24862458    -0.10600
C436        C  0.49983095  0.65049143  0.24890999    -0.12200
C437        C  0.12212538  0.49944236  0.50003419    -0.10600
C438        C  0.15210939  0.49954927  0.49990059    -0.12200
C439        C  0.37970215  0.50012822  0.50122946    -0.10600
C440        C  0.34975597  0.50061336  0.50120056    -0.12200
C441        C  0.50018150  0.87794931  0.99898235    -0.10600
C442        C  0.49978023  0.84799671  0.99934214    -0.12200
C443        C  0.49943330  0.65028714  0.00143366    -0.10600
C444        C  0.50015722  0.62030285  0.00135426    -0.12200
N445        N  0.46497993  0.53576837  0.50220468    -0.34000
N446        N  0.03667437  0.53579106  0.99693773    -0.54500
N447        N  0.03646750  0.96324915  0.50227404    -0.34000
N448        N  0.46441006  0.96330901  0.50094546    -0.54500
C449        C  0.47067563  0.56727418  0.99495557     0.29600
C450        C  0.43252385  0.52991393  0.49544093     0.29600
C451        C  0.06978834  0.96874050  0.00047655     0.29600
C452        C  0.03047915  0.93106695  0.49425648     0.29600
C453        C  0.03138914  0.56856250  0.99183803     0.38200
C454        C  0.06957546  0.53068338  0.99272362     0.38200
C455        C  0.43152708  0.96854326  0.50520008     0.38200
C456        C  0.46952947  0.93046612  0.50572791     0.38200
C457        C  0.44185504  0.58204997  0.98219284    -0.19300
C458        C  0.41746253  0.55891667  0.48357786    -0.19300
C459        C  0.08551485  0.93885334  0.99323072    -0.18500
C460        C  0.05945516  0.91623724  0.48202695    -0.19300
C461        C  0.06114444  0.58443962  0.98461225    -0.20300
C462        C  0.08532422  0.56046035  0.98517150    -0.20300
C463        C  0.41561978  0.93878401  0.51237922    -0.20300
C464        C  0.43967416  0.91468044  0.51270532    -0.20300
C465        C  0.50082163  0.58420858  0.00123388    -0.15700
C466        C  0.41573918  0.49960603  0.50127408    -0.15700
C467        C  0.50028725  0.91419739  0.50107968    -0.15700
C468        C  0.08590289  0.50005779  0.99831863    -0.15700
H469        H  0.43841506  0.60766052  0.97421954     0.17200
H470        H  0.39171143  0.56245678  0.47625493     0.17200
H471        H  0.11165002  0.93477355  0.98829420     0.17200
H472        H  0.06290693  0.89067250  0.47393581     0.17200
H473        H  0.06512635  0.61065727  0.98015176     0.15500
H474        H  0.11157484  0.56460791  0.98119149     0.15500
H475        H  0.38934899  0.93474622  0.51633081     0.15500
H476        H  0.43554932  0.88845530  0.51694190     0.15500
H477        H  0.48123429  0.51976961  0.51535894     0.28800
H478        H  0.02039842  0.97914011  0.51587851     0.28800
N479        N  0.46514622  0.53560172  0.75364144    -0.34000
N480        N  0.03702695  0.53524243  0.75053085    -0.54500
N481        N  0.03702506  0.96300381  0.74590198    -0.34000
N482        N  0.46462139  0.96304396  0.75017633    -0.54500
C483        C  0.47042664  0.56870474  0.75150972     0.29600
C484        C  0.43202162  0.53054658  0.75115433     0.29600
C485        C  0.06959097  0.96872919  0.75215050     0.29600
C486        C  0.03152114  0.93033611  0.75178712     0.29600
C487        C  0.03166796  0.56798893  0.75573308     0.38200
C488        C  0.06971338  0.52997379  0.75631319     0.38200
C489        C  0.43158466  0.96798065  0.75327798     0.38200
C490        C  0.46969807  0.93002001  0.75320175     0.38200
C491        C  0.44017554  0.58489356  0.74854839    -0.19300
C492        C  0.41605383  0.56092024  0.74829615    -0.19300
C493        C  0.08506931  0.93919763  0.76155362    -0.19300
C494        C  0.06109998  0.91501653  0.76129686    -0.19300
C495        C  0.06115856  0.58365559  0.76458550    -0.20300
C496        C  0.08526118  0.55958201  0.76492125    -0.20300
C497        C  0.41554101  0.93785792  0.75769242    -0.20300
C498        C  0.43964237  0.91384576  0.75760058    -0.20300
C499        C  0.50154205  0.58502222  0.75209833    -0.15700
C500        C  0.41548888  0.49952682  0.75147019    -0.15700
C501        C  0.50077982  0.91398127  0.75029766    -0.15700
C502        C  0.08606767  0.49931662  0.75132033    -0.15700
H503        H  0.43583673  0.61130273  0.74645516     0.17200
H504        H  0.38969144  0.56543762  0.74599494     0.17200
H505        H  0.11100700  0.93538728  0.76784162     0.17200
H506        H  0.06506983  0.88905783  0.76738108     0.17200
H507        H  0.06500240  0.60977536  0.76975412     0.15500
H508        H  0.11131496  0.56350244  0.77044334     0.15500
H509        H  0.38917346  0.93355236  0.76028079     0.15500
H510        H  0.43544845  0.88745702  0.76018284     0.15500
H511        H  0.48287918  0.51774038  0.75885211     0.28800
H512        H  0.02036224  0.97963063  0.73454750     0.28800
O513        O  0.47202203  0.70200003  0.50009205    -0.71800
O514        O  0.47175755  0.79692729  0.99976720    -0.71800
O515        O  0.47183533  0.74899834  0.94790495    -0.71900
O516        O  0.47229496  0.74944840  0.55254360    -0.71900
O517        O  0.02782843  0.75011110  0.55178857    -0.71900
O518        O  0.02816681  0.74950971  0.94761889    -0.71800
O519        O  0.02781300  0.79713799  0.49894303    -0.71800
O520        O  0.02761859  0.70165664  0.99953312    -0.71900
Ni521      Ni  0.47016167  0.74958167  0.50017373     1.25400
Ni522      Ni  0.02958475  0.74960424  0.49952416     1.25400
C523        C  0.49969409  0.68643301  0.49991861     0.90400
C524        C  0.50005497  0.81256567  0.50003510     0.90300
C525        C  0.49960528  0.74895079  0.93102032     0.90300
C526        C  0.50003878  0.74920520  0.56950387     0.90500
O527        O  0.47298841  0.70198966  0.75107160    -0.71800
O528        O  0.47315221  0.79707953  0.74939767    -0.71800
O529        O  0.47305960  0.74886823  0.69791561    -0.71900
O530        O  0.47282811  0.75016533  0.80251172    -0.71900
O531        O  0.02892943  0.74889944  0.80179636    -0.71900
O532        O  0.02876968  0.74907719  0.69709544    -0.71800
O533        O  0.02908303  0.79646492  0.74933203    -0.71800
O534        O  0.02867092  0.70133791  0.74936254    -0.71900
Ni535      Ni  0.47102030  0.74954000  0.75020960     1.25400
Ni536      Ni  0.03085805  0.74890989  0.74941636     1.25400
C537        C  0.50068908  0.68648209  0.75149962     0.90400
C538        C  0.50087438  0.81248667  0.74922775     0.90300
C539        C  0.50072992  0.74863580  0.68086658     0.90300
C540        C  0.50043373  0.75014701  0.81969446     0.90500
O541        O  0.29847902  0.52814004  0.00017329    -0.71800
O542        O  0.20316074  0.52760642  0.50056727    -0.71800
O543        O  0.25058717  0.52737434  0.55316862    -0.71900
O544        O  0.25090817  0.52813925  0.94781021    -0.71900
O545        O  0.25053425  0.97138629  0.94774616    -0.71900
O546        O  0.25061085  0.97116942  0.55172001    -0.71800
O547        O  0.20323896  0.97158850  0.00056839    -0.71800
O548        O  0.29825528  0.97152685  0.49947542    -0.71900
Ni549      Ni  0.25083479  0.53030789  0.00007139     1.25400
Ni550      Ni  0.25078569  0.96947273  0.00013365     1.25400
C551        C  0.31392784  0.50038397  0.00037877     0.90400
C552        C  0.18765085  0.50068614  0.99988110     0.90300
C553        C  0.25084443  0.49952403  0.56989919     0.90300
C554        C  0.25084349  0.50039908  0.93093547     0.90500
O555        O  0.29825778  0.52756745  0.75081846    -0.71800
O556        O  0.20312114  0.52722762  0.74982804    -0.71800
O557        O  0.25027372  0.52764818  0.80258639    -0.71900
O558        O  0.25113549  0.52714605  0.69799407    -0.71900
O559        O  0.25120141  0.97087553  0.69729875    -0.71900
O560        O  0.25061555  0.97116396  0.80204702    -0.71800
O561        O  0.20330707  0.97094116  0.74924849    -0.71800
O562        O  0.29846623  0.97119389  0.74995145    -0.71900
Ni563      Ni  0.25068766  0.52938855  0.75028523     1.25400
Ni564      Ni  0.25090634  0.96904868  0.74966200     1.25400
C565        C  0.31389222  0.49994314  0.75122517     0.90400
C566        C  0.18771959  0.49949818  0.74989042     0.90300
C567        C  0.25028266  0.50004128  0.81980297     0.90300
C568        C  0.25137564  0.49938274  0.68114018     0.90500
C569        C  0.25028620  0.50019359  0.85892502    -0.10600
C570        C  0.25055313  0.50027118  0.89181464    -0.12200
C571        C  0.25136277  0.49918519  0.64197975    -0.10600
C572        C  0.25110227  0.49917200  0.60906494    -0.12200
C573        C  0.49986833  0.74940023  0.89182562    -0.10600
C574        C  0.50021444  0.74993185  0.85889518    -0.12200
C575        C  0.50026804  0.74879258  0.60871209    -0.10600
C576        C  0.50063275  0.74852690  0.64165313    -0.12200
C577        C  0.15205330  0.49934687  0.74994087    -0.10600
C578        C  0.12210131  0.49923798  0.75043438    -0.12200
C579        C  0.37945254  0.49987560  0.75153302    -0.10600
C580        C  0.34951973  0.50002089  0.75150841    -0.12200
C581        C  0.50103858  0.87799594  0.74929685    -0.10600
C582        C  0.50100596  0.84808219  0.74896067    -0.12200
C583        C  0.50131350  0.62101480  0.75235631    -0.10600
C584        C  0.50085452  0.65091452  0.75216563    -0.12200
C585        C  0.12197997  0.50009463  0.99904500    -0.10600
C586        C  0.15195128  0.50052808  0.99948497    -0.12200
C587        C  0.37955194  0.49941291  0.00022453    -0.10600
C588        C  0.34960178  0.50006680  0.00028363    -0.12200
C589        C  0.50041562  0.87816681  0.50036783    -0.10600
C590        C  0.50024481  0.84822026  0.50006484    -0.12200
C591        C  0.49982175  0.65082784  0.49959148    -0.10600
C592        C  0.50047099  0.62091477  0.49934858    -0.12200
N593        N  0.96446899  0.03540827  0.00095200    -0.34000
N594        N  0.53677204  0.03562777  0.50083512    -0.54500
N595        N  0.53671608  0.46275058  0.00355608    -0.34000
N596        N  0.96439506  0.46342368  0.99929824    -0.54500
C597        C  0.97063385  0.06729272  0.49337042     0.29600
C598        C  0.93167987  0.02980773  0.99607433     0.29600
C599        C  0.56966574  0.46940739  0.49645247     0.29600
C600        C  0.53095283  0.43024026  0.99694445     0.29600
C601        C  0.53150340  0.06839861  0.50596298     0.38200
C602        C  0.56947415  0.03030133  0.50637098     0.38200
C603        C  0.93156734  0.46845469  0.99427964     0.38200
C604        C  0.96963712  0.43051142  0.99547801     0.38200
C605        C  0.94208204  0.08188828  0.47962022    -0.19300
C606        C  0.91603000  0.05948631  0.98762945    -0.19300
C607        C  0.58490443  0.43995609  0.48640566    -0.18500
C608        C  0.56036473  0.41494177  0.98683582    -0.19300
C609        C  0.56108553  0.08402737  0.51454999    -0.20300
C610        C  0.58513535  0.05990067  0.51479843    -0.20300
C611        C  0.91579872  0.43854490  0.98768905    -0.20300
C612        C  0.93989448  0.41451667  0.98845905    -0.20300
C613        C  0.00063328  0.08426800  0.50042402    -0.15700
C614        C  0.91514228  0.99908560  0.00057899    -0.15700
C615        C  0.00043314  0.41440492  0.00056009    -0.15700
C616        C  0.58575810  0.99964693  0.50111164    -0.15700
H617        H  0.93885354  0.10738258  0.47110253     0.17200
H618        H  0.88989384  0.06349187  0.98262254     0.17200
H619        H  0.61074509  0.43616615  0.47964693     0.17200
H620        H  0.56412227  0.38906803  0.98023052     0.17200
H621        H  0.56502779  0.11015534  0.51958076     0.15500
H622        H  0.61124011  0.06379699  0.52004821     0.15500
H623        H  0.88959843  0.43438679  0.98334411     0.15500
H624        H  0.93586968  0.38821702  0.98476956     0.15500
H625        H  0.98145119  0.01863435  0.01116032     0.28800
H626        H  0.52021587  0.47924903  0.01534424     0.28800
N627        N  0.96413718  0.03589789  0.24617490    -0.34000
N628        N  0.53627488  0.03603687  0.25240561    -0.54500
N629        N  0.53693466  0.46375657  0.24786594    -0.34000
N630        N  0.96427753  0.46369811  0.25235193    -0.54500
C631        C  0.97001397  0.06825553  0.25351238     0.29600
C632        C  0.93164218  0.03015637  0.25295418     0.29600
C633        C  0.56908829  0.46988912  0.25594581     0.29600
C634        C  0.53089337  0.43162753  0.25614727     0.29600
C635        C  0.53105983  0.06875930  0.25796448     0.38200
C636        C  0.56900923  0.03062963  0.25762708     0.38200
C637        C  0.93159073  0.46905332  0.25796194     0.38200
C638        C  0.96959315  0.43102619  0.25805752     0.38200
C639        C  0.94078748  0.08334003  0.26461057    -0.19300
C640        C  0.91660868  0.05933071  0.26425872    -0.19300
C641        C  0.58373451  0.44123178  0.26936749    -0.19300
C642        C  0.55962864  0.41708144  0.26949000    -0.19300
C643        C  0.56068991  0.08428722  0.26654302    -0.20300
C644        C  0.58472068  0.06013367  0.26637114    -0.20300
C645        C  0.91598877  0.43959799  0.26711093    -0.20300
C646        C  0.94006425  0.41549427  0.26715965    -0.20300
C647        C  0.00054161  0.08494646  0.24862271    -0.15700
C648        C  0.91483541  0.99979794  0.24739351    -0.15700
C649        C  0.00010264  0.41464473  0.25217944    -0.15700
C650        C  0.58527128  0.00003878  0.25172339    -0.15700
H651        H  0.93718329  0.10904683  0.27204752     0.17200
H652        H  0.89083044  0.06301233  0.27136545     0.17200
H653        H  0.60924570  0.43794187  0.27777597     0.17200
H654        H  0.56299818  0.39160269  0.27800195     0.17200
H655        H  0.56466639  0.11036769  0.27183859     0.15500
H656        H  0.61085970  0.06397396  0.27145692     0.15500
H657        H  0.88989993  0.43576385  0.27251638     0.15500
H658        H  0.93615902  0.38942516  0.27264060     0.15500
H659        H  0.98040419  0.01967735  0.23346620     0.28800
H660        H  0.52118153  0.47939040  0.23341165     0.28800
O661        O  0.97159722  0.20196305  0.99923724    -0.71800
O662        O  0.97220366  0.29695387  0.50005486    -0.71800
O663        O  0.97180413  0.24909908  0.44802072    -0.71900
O664        O  0.97111423  0.24926341  0.05199571    -0.71900
O665        O  0.52790076  0.24954993  0.05214044    -0.71900
O666        O  0.52825269  0.24961165  0.44741744    -0.71800
O667        O  0.52775807  0.29670509  0.99949431    -0.71800
O668        O  0.52827803  0.20198286  0.49970862    -0.71900
Ni669      Ni  0.96954242  0.24961675  0.99966301     1.25400
Ni670      Ni  0.52989660  0.24920192  0.99985771     1.25400
C671        C  0.99931993  0.18644550  0.99926706     0.90400
C672        C  0.99941541  0.31269780  0.00048605     0.90300
C673        C  0.99940035  0.24904740  0.43079742     0.90300
C674        C  0.99866670  0.24925216  0.06929508     0.90500
O675        O  0.97148133  0.20213474  0.25006723    -0.71800
O676        O  0.97127785  0.29747503  0.25025536    -0.71800
O677        O  0.97101276  0.24987923  0.19783533    -0.71900
O678        O  0.97143042  0.24968729  0.30248159    -0.71900
O679        O  0.52840196  0.24951907  0.30209327    -0.71900
O680        O  0.52836161  0.25018230  0.19743558    -0.71800
O681        O  0.52858320  0.29740016  0.25008911    -0.71800
O682        O  0.52827402  0.20226989  0.24952524    -0.71900
Ni683      Ni  0.96930077  0.24980039  0.25016865     1.25400
Ni684      Ni  0.53039309  0.24983378  0.24976927     1.25400
C685        C  0.99924355  0.18667970  0.24986494     0.90400
C686        C  0.99898771  0.31296607  0.25020691     0.90300
C687        C  0.99860425  0.24983807  0.18062055     0.90300
C688        C  0.99914912  0.24966816  0.31945024     0.90500
O689        O  0.79806554  0.02732603  0.50021216    -0.71800
O690        O  0.70256340  0.02777990  0.00000154    -0.71800
O691        O  0.74992697  0.02791979  0.05243629    -0.71900
O692        O  0.75067569  0.02758452  0.44767216    -0.71900
O693        O  0.75130373  0.47291958  0.44718854    -0.71900
O694        O  0.75081831  0.47195651  0.05180118    -0.71800
O695        O  0.70359289  0.47235915  0.49935734    -0.71800
O696        O  0.79824914  0.47187745  0.99931135    -0.71900
Ni697      Ni  0.75046751  0.02931726  0.50004603     1.25400
Ni698      Ni  0.75114001  0.47060333  0.49947388     1.25400
C699        C  0.81363595  0.99965719  0.50001148     0.90400
C700        C  0.68738503  0.99969738  0.49953598     0.90300
C701        C  0.74982183  0.00022493  0.06945462     0.90300
C702        C  0.75074840  0.99997452  0.43049330     0.90500
O703        O  0.79748098  0.02792615  0.24928087    -0.71800
O704        O  0.70230966  0.02758375  0.25036984    -0.71800
O705        O  0.75033255  0.02768696  0.30215918    -0.71900
O706        O  0.74940141  0.02787166  0.19758938    -0.71900
O707        O  0.75070749  0.47210216  0.19743805    -0.71900
O708        O  0.75090995  0.47266296  0.30218456    -0.71800
O709        O  0.70322398  0.47220954  0.24998096    -0.71800
O710        O  0.79830458  0.47242492  0.24980604    -0.71900
Ni711      Ni  0.74987283  0.02975328  0.24986251     1.25400
Ni712      Ni  0.75078580  0.47036271  0.24985034     1.25400
C713        C  0.81312995  0.00029719  0.24899251     0.90400
C714        C  0.68689977  0.99986208  0.25047012     0.90300
C715        C  0.75054407  0.99999381  0.31920719     0.90300
C716        C  0.74942113  0.00021618  0.18054226     0.90500
C717        C  0.75072285  0.99998864  0.35838394    -0.10600
C718        C  0.75078483  0.00007122  0.39130918    -0.12200
C719        C  0.74929571  0.00025688  0.14143691    -0.10600
C720        C  0.74945751  0.00021620  0.10855685    -0.12200
C721        C  0.99924838  0.24921774  0.39159515    -0.10600
C722        C  0.99922692  0.24946444  0.35865625    -0.12200
C723        C  0.99841336  0.24936017  0.10848822    -0.10600
C724        C  0.99841880  0.24960761  0.14142215    -0.12200
C725        C  0.65124370  0.99976122  0.25081052    -0.10600
C726        C  0.62129681  0.99982096  0.25115937    -0.12200
C727        C  0.87877493  0.00012364  0.24779507    -0.10600
C728        C  0.84881223  0.00033881  0.24831804    -0.12200
C729        C  0.99992711  0.37860344  0.25118467    -0.10600
C730        C  0.99925492  0.34865056  0.25057944    -0.12200
C731        C  0.00022767  0.12101709  0.24917459    -0.10600
C732        C  0.99959415  0.15098305  0.24956818    -0.12200
C733        C  0.62178106  0.99956440  0.50012823    -0.10600
C734        C  0.65172646  0.99966259  0.49960286    -0.12200
C735        C  0.87930432  0.99949460  0.49937787    -0.10600
C736        C  0.84933343  0.99964326  0.49968998    -0.12200
C737        C  0.00054435  0.37834279  0.00124599    -0.10600
C738        C  0.99982036  0.34838291  0.00105216    -0.12200
C739        C  0.99957534  0.15078231  0.99868471    -0.10600
C740        C  0.00019418  0.12083281  0.99844906    -0.12200
N741        N  0.96448736  0.03511341  0.50133862    -0.34000
N742        N  0.53657186  0.03552828  0.99847477    -0.54500
N743        N  0.53714371  0.46370812  0.50311644    -0.34000
N744        N  0.96451894  0.46339620  0.50234397    -0.54500
C745        C  0.96993623  0.06811277  0.99527315     0.29600
C746        C  0.93241036  0.02906581  0.49277028     0.29600
C747        C  0.56926771  0.46844416  0.99712746     0.29600
C748        C  0.53141312  0.43113186  0.49682065     0.29600
C749        C  0.53149957  0.06834531  0.99339325     0.38200
C750        C  0.56945717  0.03026314  0.99432747     0.38200
C751        C  0.93159446  0.46857246  0.50627498     0.38200
C752        C  0.96949724  0.43040180  0.50593340     0.38200
C753        C  0.94009576  0.08358236  0.98712339    -0.19300
C754        C  0.91796643  0.05775882  0.47922625    -0.19300
C755        C  0.58451035  0.43900526  0.98697939    -0.18500
C756        C  0.56081664  0.41585654  0.48663000    -0.19300
C757        C  0.56137656  0.08407800  0.98644495    -0.20300
C758        C  0.58539627  0.05997313  0.98698707    -0.20300
C759        C  0.91551409  0.43865616  0.51200030    -0.20300
C760        C  0.93949617  0.41449681  0.51176607    -0.20300
C761        C  0.00068659  0.08477581  0.99885136    -0.15700
C762        C  0.91535809  0.99906236  0.49946316    -0.15700
C763        C  0.00031117  0.41414767  0.50149622    -0.15700
C764        C  0.58562257  0.99946887  0.99926701    -0.15700
H765        H  0.93596883  0.10962757  0.98165450     0.17200
H766        H  0.89257569  0.06107639  0.47040011     0.17200
H767        H  0.61039565  0.43518686  0.98045311     0.17200
H768        H  0.56458718  0.38997765  0.48006825     0.17200
H769        H  0.56548951  0.11023848  0.98173493     0.15500
H770        H  0.61164876  0.06395183  0.98282412     0.15500
H771        H  0.88917564  0.43456476  0.51529044     0.15500
H772        H  0.93522551  0.38816766  0.51488163     0.15500
H773        H  0.98000755  0.01940253  0.51600138     0.28800
H774        H  0.52067059  0.48029901  0.51490009     0.28800
N775        N  0.96447788  0.03505406  0.74630580    -0.34000
N776        N  0.53688950  0.03559473  0.75297179    -0.54500
N777        N  0.53689665  0.46334951  0.74498861    -0.34000
N778        N  0.96471267  0.46309475  0.75212792    -0.54500
C779        C  0.96996204  0.06774722  0.75211491     0.29600
C780        C  0.93185878  0.02928736  0.75229944     0.29600
C781        C  0.56982181  0.46866851  0.74949262     0.29600
C782        C  0.53145250  0.43050455  0.75014232     0.29600
C783        C  0.53163083  0.06848601  0.75699968     0.38200
C784        C  0.56975013  0.03054170  0.75764144     0.38200
C785        C  0.93194550  0.46846674  0.75715021     0.38200
C786        C  0.96996251  0.43042974  0.75803655     0.38200
C787        C  0.94027879  0.08306538  0.76117283    -0.19300
C788        C  0.91630278  0.05886281  0.76130087    -0.19300
C789        C  0.58549854  0.43873090  0.75663318    -0.19300
C790        C  0.56138699  0.41475889  0.75707435    -0.19300
C791        C  0.56138388  0.08446459  0.76395085    -0.20300
C792        C  0.58550159  0.06045687  0.76435460    -0.20300
C793        C  0.91623781  0.43900087  0.76607442    -0.20300
C794        C  0.94031486  0.41490690  0.76662298    -0.20300
C795        C  0.00065200  0.08446201  0.74820031    -0.15700
C796        C  0.91538976  0.99844586  0.74863687    -0.15700
C797        C  0.00057614  0.41401965  0.75291128    -0.15700
C798        C  0.58611436  0.99974832  0.75361654    -0.15700
H799        H  0.93624729  0.10903373  0.76708923     0.17200
H800        H  0.89031903  0.06267934  0.76733422     0.17200
H801        H  0.61161020  0.43458285  0.76166003     0.17200
H802        H  0.56545613  0.38869193  0.76247045     0.17200
H803        H  0.56539454  0.11074354  0.76783967     0.15500
H804        H  0.61170737  0.06463490  0.76863611     0.15500
H805        H  0.89008097  0.43514558  0.77103915     0.15500
H806        H  0.93634507  0.38884868  0.77211145     0.15500
H807        H  0.98129137  0.01837408  0.73541264     0.28800
H808        H  0.51969596  0.48058473  0.73596501     0.28800
O809        O  0.97200952  0.20166996  0.50069096    -0.71800
O810        O  0.97165435  0.29729319  0.00008192    -0.71800
O811        O  0.97183422  0.24990589  0.94739664    -0.71900
O812        O  0.97232024  0.24964184  0.55267241    -0.71900
O813        O  0.52833570  0.24949330  0.55205202    -0.71900
O814        O  0.52795923  0.24890608  0.94757951    -0.71800
O815        O  0.52831723  0.29715437  0.49972854    -0.71800
O816        O  0.52805887  0.20167948  0.00016992    -0.71900
Ni817      Ni  0.97009200  0.24932971  0.50037000     1.25400
Ni818      Ni  0.53027226  0.24956801  0.49972360     1.25400
C819        C  0.99966824  0.18605105  0.50055904     0.90400
C820        C  0.99992660  0.31239275  0.49988590     0.90300
C821        C  0.99961763  0.24973512  0.93057607     0.90300
C822        C  0.00008071  0.24975662  0.56956148     0.90500
O823        O  0.97257541  0.20180559  0.74955044    -0.71800
O824        O  0.97265534  0.29698002  0.75063550    -0.71800
O825        O  0.97267345  0.24996728  0.69777596    -0.71900
O826        O  0.97248667  0.24892855  0.80232826    -0.71900
O827        O  0.52848115  0.24932113  0.80226449    -0.71900
O828        O  0.52857315  0.24910034  0.69757797    -0.71800
O829        O  0.52850878  0.29680409  0.74977845    -0.71800
O830        O  0.52856065  0.20167529  0.75014681    -0.71900
Ni831      Ni  0.97061192  0.24941168  0.75005698     1.25400
Ni832      Ni  0.53052496  0.24923257  0.74993398     1.25400
C833        C  0.00023564  0.18621019  0.74947412     0.90400
C834        C  0.00035151  0.31243530  0.75096780     0.90300
C835        C  0.00037136  0.25011251  0.68077724     0.90300
C836        C  0.00012879  0.24884098  0.81943411     0.90500
O837        O  0.79783522  0.02798877  0.00040351    -0.71800
O838        O  0.70288852  0.02736670  0.49976807    -0.71800
O839        O  0.75022642  0.02702220  0.55244251    -0.71900
O840        O  0.75035569  0.02812556  0.94790736    -0.71900
O841        O  0.75055070  0.47150105  0.94715064    -0.71900
O842        O  0.75100446  0.47227192  0.55174737    -0.71800
O843        O  0.70314227  0.47162502  0.99961619    -0.71800
O844        O  0.79862685  0.47278213  0.49973620    -0.71900
Ni845      Ni  0.75017138  0.02995689  0.00018764     1.25400
Ni846      Ni  0.75070035  0.46976515  0.99947896     1.25400
C847        C  0.81339830  0.00028776  0.00045433     0.90400
C848        C  0.68718795  0.00002147  0.99993180     0.90300
C849        C  0.75012918  0.99923451  0.56936054     0.90300
C850        C  0.75053266  0.00048366  0.93083452     0.90500
O851        O  0.79840488  0.02663977  0.74977233    -0.71800
O852        O  0.70328556  0.02730084  0.75032755    -0.71800
O853        O  0.75105019  0.02750087  0.80226370    -0.71900
O854        O  0.75057867  0.02657221  0.69764742    -0.71900
O855        O  0.75129284  0.47157629  0.69692040    -0.71900
O856        O  0.75072688  0.47117971  0.80150466    -0.71800
O857        O  0.70351405  0.47128292  0.74880355    -0.71800
O858        O  0.79861004  0.47148359  0.74948174    -0.71900
Ni859      Ni  0.75085033  0.02898313  0.74995507     1.25400
Ni860      Ni  0.75105225  0.46938854  0.74918119     1.25400
C861        C  0.81376959  0.99886028  0.75011143     0.90400
C862        C  0.68763772  0.99972095  0.75092063     0.90300
C863        C  0.75087881  0.99998530  0.81964521     0.90300
C864        C  0.75032441  0.99879115  0.68083210     0.90500
C865        C  0.75081501  0.00035931  0.85879082    -0.10600
C866        C  0.75068725  0.00054064  0.89169385    -0.12200
C867        C  0.75007330  0.99863416  0.64158102    -0.10600
C868        C  0.74999110  0.99891510  0.60861357    -0.12200
C869        C  0.99985639  0.24938427  0.89144909    -0.10600
C870        C  0.00002424  0.24899181  0.85855873    -0.12200
C871        C  0.00027687  0.25022894  0.60871493    -0.10600
C872        C  0.00039145  0.25038552  0.64162464    -0.12200
C873        C  0.65203116  0.99989347  0.75182292    -0.10600
C874        C  0.62211769  0.99984998  0.75277689    -0.12200
C875        C  0.87935713  0.99849011  0.74958098    -0.10600
C876        C  0.84941531  0.99861065  0.75000371    -0.12200
C877        C  0.00056692  0.37800631  0.75230452    -0.10600
C878        C  0.00043548  0.34807247  0.75166523    -0.12200
C879        C  0.00035529  0.12054270  0.74880667    -0.10600
C880        C  0.00023414  0.15051424  0.74916499    -0.12200
C881        C  0.62162998  0.99933839  0.99982041    -0.10600
C882        C  0.65155968  0.99972503  0.99992826    -0.12200
C883        C  0.87905685  0.99944096  0.00048756    -0.10600
C884        C  0.84909063  0.00006589  0.00049755    -0.12200
C885        C  0.00036296  0.37806895  0.50050862    -0.10600
C886        C  0.00011427  0.34809583  0.50002209    -0.12200
C887        C  0.99972541  0.15032649  0.50051367    -0.10600
C888        C  0.00010311  0.12034322  0.50035738    -0.12200
N889        N  0.96439555  0.53550463  0.99544437    -0.34000
N890        N  0.53721771  0.53597524  0.50002028    -0.54500
N891        N  0.53646462  0.96319105  0.99741094    -0.34000
N892        N  0.96441652  0.96304371  0.00160957    -0.54500
C893        C  0.97045464  0.56818441  0.49698902     0.29600
C894        C  0.93206264  0.52971352  0.00301771     0.29600
C895        C  0.56901900  0.96919197  0.49583293     0.29600
C896        C  0.53066247  0.93065117  0.00380407     0.29600
C897        C  0.53200127  0.56888235  0.50404030     0.38200
C898        C  0.57010035  0.53092763  0.50451658     0.38200
C899        C  0.93136778  0.96813438  0.00463478     0.38200
C900        C  0.96954563  0.93014907  0.00603725     0.38200
C901        C  0.94120509  0.58325723  0.48592887    -0.19300
C902        C  0.91709813  0.55891699  0.01430767    -0.19300
C903        C  0.58405898  0.94000589  0.48455898    -0.18500
C904        C  0.55996405  0.91539866  0.01443101    -0.19300
C905        C  0.56179775  0.58490092  0.51059557    -0.20300
C906        C  0.58592704  0.56087527  0.51086488    -0.20300
C907        C  0.91538213  0.93819742  0.01054647    -0.20300
C908        C  0.93950689  0.91418381  0.01139676    -0.20300
C909        C  0.00094235  0.58494972  0.50162194    -0.15700
C910        C  0.91530035  0.49924878  0.99829499    -0.15700
C911        C  0.00060630  0.91395409  0.00341301    -0.15700
C912        C  0.58632778  0.50004472  0.50071939    -0.15700
H913        H  0.93753086  0.60897859  0.47853370     0.17200
H914        H  0.89145037  0.56253495  0.02200305     0.17200
H915        H  0.60979397  0.93638238  0.47722840     0.17200
H916        H  0.56370263  0.88949080  0.02094359     0.17200
H917        H  0.56581229  0.61120114  0.51430637     0.15500
H918        H  0.61216937  0.56504917  0.51487205     0.15500
H919        H  0.88904072  0.93401860  0.01364859     0.15500
H920        H  0.93534697  0.88792235  0.01530141     0.15500
H921        H  0.98052004  0.51920395  0.98253486     0.28800
H922        H  0.52016166  0.97967153  0.98508490     0.28800
N923        N  0.96437497  0.53570763  0.25338747    -0.34000
N924        N  0.53694396  0.53568695  0.24833117    -0.54500
N925        N  0.53617221  0.96370916  0.25272978    -0.34000
N926        N  0.96375824  0.96367415  0.24855525    -0.54500
C927        C  0.97032239  0.56794644  0.24558369     0.29600
C928        C  0.93214219  0.52972838  0.24558588     0.29600
C929        C  0.56851063  0.96974504  0.24548496     0.29600
C930        C  0.53037075  0.93136600  0.24520685     0.29600
C931        C  0.53143255  0.56824331  0.24204974     0.38200
C932        C  0.56957991  0.53033911  0.24245730     0.38200
C933        C  0.93109242  0.96903853  0.24268829     0.38200
C934        C  0.96899075  0.93084969  0.24372647     0.38200
C935        C  0.94144299  0.58271104  0.23293717    -0.19300
C936        C  0.91735474  0.55859260  0.23292403    -0.19300
C937        C  0.58352042  0.94078693  0.23344261    -0.19300
C938        C  0.55948023  0.91658695  0.23329956    -0.19300
C939        C  0.56077331  0.58374588  0.23225402    -0.20300
C940        C  0.58497097  0.55971258  0.23253043    -0.20300
C941        C  0.91542054  0.93940834  0.23445307    -0.20300
C942        C  0.93941654  0.91522883  0.23510443    -0.20300
C943        C  0.00048981  0.58481401  0.25183379    -0.15700
C944        C  0.91529617  0.49955220  0.25186693    -0.15700
C945        C  0.99957412  0.91448332  0.24944678    -0.15700
C946        C  0.58597214  0.49997492  0.24910257    -0.15700
H947        H  0.93797926  0.60830219  0.22489743     0.17200
H948        H  0.89176468  0.56203506  0.22488995     0.17200
H949        H  0.60923900  0.93732535  0.22594619     0.17200
H950        H  0.56312468  0.89093794  0.22564796     0.17200
H951        H  0.56448736  0.60976016  0.22631359     0.15500
H952        H  0.61100319  0.56355517  0.22681175     0.15500
H953        H  0.88934121  0.93553400  0.22903790     0.15500
H954        H  0.93544522  0.88907438  0.23027530     0.15500
H955        H  0.98026290  0.51986103  0.26730881     0.28800
H956        H  0.52007172  0.97967043  0.26613505     0.28800
O957        O  0.97227711  0.70185222  0.99892688    -0.71800
O958        O  0.97246649  0.79742007  0.49929108    -0.71800
O959        O  0.97204892  0.74952914  0.44748625    -0.71900
O960        O  0.97202510  0.74895328  0.05181381    -0.71900
O961        O  0.52666225  0.74964261  0.05285519    -0.71900
O962        O  0.52739498  0.74935619  0.44774347    -0.71800
O963        O  0.52709440  0.79665465  0.00000017    -0.71800
O964        O  0.52736930  0.70188152  0.49996588    -0.71900
Ni965      Ni  0.97043965  0.74942694  0.99944034     1.25400
Ni966      Ni  0.52891332  0.74911652  0.00059335     1.25400
C967        C  0.99992232  0.68624265  0.99896323     0.90400
C968        C  0.00035439  0.81236507  0.00051631     0.90300
C969        C  0.99968298  0.74933620  0.43034457     0.90300
C970        C  0.99958399  0.74879894  0.06912070     0.90500
O971        O  0.97197153  0.70205845  0.25033901    -0.71800
O972        O  0.97220918  0.79727034  0.24957215    -0.71800
O973        O  0.97191869  0.74935160  0.19759901    -0.71900
O974        O  0.97213074  0.74993384  0.30217651    -0.71900
O975        O  0.52762425  0.74869580  0.30240180    -0.71900
O976        O  0.52712272  0.74975716  0.19775201    -0.71800
O977        O  0.52763194  0.79683625  0.25057820    -0.71800
O978        O  0.52735437  0.70167889  0.24949501    -0.71900
Ni979      Ni  0.97007584  0.74967113  0.24991273     1.25400
Ni980      Ni  0.52941484  0.74922957  0.25005541     1.25400
C981        C  0.99963286  0.68646107  0.25046564     0.90400
C982        C  0.99991043  0.81273200  0.24950313     0.90300
C983        C  0.99954468  0.74913684  0.18045372     0.90300
C984        C  0.99981936  0.74983266  0.31918304     0.90500
O985        O  0.79841972  0.52813011  0.50000995    -0.71800
O986        O  0.70291477  0.52696475  0.99931724    -0.71800
O987        O  0.75065722  0.52730201  0.05150660    -0.71900
O988        O  0.75095654  0.52827336  0.44749550    -0.71900
O989        O  0.75073806  0.97223453  0.44744336    -0.71900
O990        O  0.75004428  0.97255718  0.05242088    -0.71800
O991        O  0.70294590  0.97202983  0.49945370    -0.71800
O992        O  0.79787136  0.97265220  0.00041307    -0.71900
Ni993      Ni  0.75084493  0.52993187  0.49982672     1.25400
Ni994      Ni  0.75051412  0.97001271  0.49973779     1.25400
C995        C  0.81402874  0.50048358  0.50007607     0.90400
C996        C  0.68792507  0.49995988  0.49961657     0.90300
C997        C  0.75076026  0.49967948  0.06873849     0.90300
C998        C  0.75117157  0.50068866  0.43028721     0.90500
O999        O  0.79817833  0.52776729  0.24938696    -0.71800
O1000       O  0.70303259  0.52754733  0.24956276    -0.71800
O1001       O  0.75073255  0.52801463  0.30172798    -0.71900
O1002       O  0.75052836  0.52744638  0.19708572    -0.71900
O1003       O  0.74967269  0.97251024  0.19755122    -0.71900
O1004       O  0.75055591  0.97233381  0.30214111    -0.71800
O1005       O  0.70255117  0.97224372  0.25029257    -0.71800
O1006       O  0.79769614  0.97258973  0.24925717    -0.71900
Ni1007     Ni  0.75060297  0.52967521  0.24940761     1.25400
Ni1008     Ni  0.75013032  0.97043419  0.24981917     1.25400
C1009       C  0.81375835  0.50010640  0.24973184     0.90400
C1010       C  0.68759787  0.49983772  0.24986258     0.90300
C1011       C  0.75091069  0.50044685  0.31901678     0.90300
C1012       C  0.75062922  0.49971200  0.18017484     0.90500
C1013       C  0.75111043  0.50071197  0.35819304    -0.10600
C1014       C  0.75120568  0.50085121  0.39111479    -0.12200
C1015       C  0.75069364  0.49962975  0.14093497    -0.10600
C1016       C  0.75076109  0.49973918  0.10797533    -0.12200
C1017       C  0.99963816  0.74945816  0.39121325    -0.10600
C1018       C  0.99979151  0.74969846  0.35831719    -0.12200
C1019       C  0.99936505  0.74873416  0.10832171    -0.10600
C1020       C  0.99941623  0.74886203  0.14125790    -0.12200
C1021       C  0.65193887  0.49974957  0.24997071    -0.10600
C1022       C  0.62198910  0.49978626  0.24976494    -0.12200
C1023       C  0.87930582  0.49981398  0.25096133    -0.10600
C1024       C  0.84938229  0.50007370  0.25025495    -0.12200
C1025       C  0.99981754  0.87840967  0.24964325    -0.10600
C1026       C  0.99996149  0.84843462  0.24956019    -0.12200
C1027       C  0.00007782  0.62084374  0.25133978    -0.10600
C1028       C  0.99969272  0.65079397  0.25093815    -0.12200
C1029       C  0.62235159  0.49983916  0.50018196    -0.10600
C1030       C  0.65228929  0.49980962  0.49984650    -0.12200
C1031       C  0.87953794  0.49994681  0.50127926    -0.10600
C1032       C  0.84962807  0.50043647  0.50066578    -0.12200
C1033       C  0.00067023  0.87792322  0.00244418    -0.10600
C1034       C  0.00053335  0.84799566  0.00144629    -0.12200
C1035       C  0.99994051  0.65063132  0.99818854    -0.10600
C1036       C  0.00026702  0.62071462  0.99741988    -0.12200
N1037       N  0.96471718  0.53574299  0.50405616    -0.34000
N1038       N  0.53677638  0.53510198  0.00171810    -0.54500
N1039       N  0.53661809  0.96333809  0.50302213    -0.34000
N1040       N  0.96427669  0.96319301  0.49968069    -0.54500
C1041       C  0.97024558  0.56794787  0.00226755     0.29600
C1042       C  0.93227728  0.52995537  0.49712224     0.29600
C1043       C  0.56892279  0.96892697  0.00424269     0.29600
C1044       C  0.53078110  0.93092056  0.49595451     0.29600
C1045       C  0.53160548  0.56799731  0.00614692     0.38200
C1046       C  0.56965463  0.52991553  0.00612865     0.38200
C1047       C  0.93165583  0.96859271  0.50567164     0.38200
C1048       C  0.96967461  0.93061365  0.50588942     0.38200
C1049       C  0.94116646  0.58301439  0.01385859    -0.19300
C1050       C  0.91715707  0.55917053  0.48599250    -0.19300
C1051       C  0.58407660  0.93951473  0.01469344    -0.18500
C1052       C  0.55996779  0.91588217  0.48466462    -0.19300
C1053       C  0.56141767  0.58385120  0.01301976    -0.20300
C1054       C  0.58550823  0.55976523  0.01293902    -0.20300
C1055       C  0.91618051  0.93924894  0.51550028    -0.20300
C1056       C  0.94028415  0.91515717  0.51560518    -0.20300
C1057       C  0.00060850  0.58471944  0.99666447    -0.15700
C1058       C  0.91552655  0.49948863  0.50202398    -0.15700
C1059       C  0.00017703  0.91428565  0.50004394    -0.15700
C1060       C  0.58589655  0.49908040  0.00167125    -0.15700
H1061       H  0.93759114  0.60876360  0.02113073     0.17200
H1062       H  0.89141637  0.56280888  0.47868120     0.17200
H1063       H  0.60991913  0.93571432  0.02145014     0.17200
H1064       H  0.56359495  0.89014258  0.47737909     0.17200
H1065       H  0.56549681  0.61011299  0.01695029     0.15500
H1066       H  0.61176655  0.56385620  0.01691902     0.15500
H1067       H  0.89017148  0.93549180  0.52140724     0.15500
H1068       H  0.93652215  0.88916922  0.52165217     0.15500
H1069       H  0.98105392  0.51943151  0.51662957     0.28800
H1070       H  0.52040999  0.97956323  0.51581004     0.28800
N1071       N  0.96485439  0.53518551  0.75194232    -0.34000
N1072       N  0.53750460  0.53582591  0.74917787    -0.54500
N1073       N  0.53696725  0.96323978  0.75391578    -0.34000
N1074       N  0.96469932  0.96262006  0.74800444    -0.54500
C1075       C  0.97079968  0.56741838  0.74403728     0.29600
C1076       C  0.93252601  0.52921710  0.74457260     0.29600
C1077       C  0.56974396  0.96896550  0.74911944     0.29600
C1078       C  0.53159320  0.93061969  0.74765180     0.29600
C1079       C  0.53272440  0.56894346  0.75101485     0.38200
C1080       C  0.57058424  0.53084946  0.74750809     0.38200
C1081       C  0.93166009  0.96754939  0.74487453     0.38200
C1082       C  0.96988309  0.92968292  0.74417244     0.38200
C1083       C  0.94179637  0.58221578  0.73179009    -0.19300
C1084       C  0.91765882  0.55812347  0.73212221    -0.19300
C1085       C  0.58550824  0.93941551  0.74045798    -0.19300
C1086       C  0.56149655  0.91527338  0.73956319    -0.19300
C1087       C  0.56303760  0.58513394  0.75056185    -0.20300
C1088       C  0.58697278  0.56105398  0.74823547    -0.20300
C1089       C  0.91572952  0.93749063  0.73956621    -0.20300
C1090       C  0.93990984  0.91354741  0.73906909    -0.20300
C1091       C  0.00108118  0.58426593  0.74989832    -0.15700
C1092       C  0.91568637  0.49900078  0.75094180    -0.15700
C1093       C  0.00092161  0.91363491  0.74752181    -0.15700
C1094       C  0.58644453  0.49957058  0.74756215    -0.15700
H1095       H  0.93828030  0.60781653  0.72381367     0.17200
H1096       H  0.89198582  0.56161268  0.72444225     0.17200
H1097       H  0.61165714  0.93555828  0.73540303     0.17200
H1098       H  0.56565524  0.88932246  0.73365616     0.17200
H1099       H  0.56749752  0.61155778  0.75174198     0.15500
H1100       H  0.61344709  0.56532914  0.74777758     0.15500
H1101       H  0.88938547  0.93318097  0.73671765     0.15500
H1102       H  0.93580999  0.88720849  0.73583193     0.15500
H1103       H  0.98087275  0.51932006  0.76565162     0.28800
H1104       H  0.51987292  0.97989012  0.76429855     0.28800
O1105       O  0.97206565  0.70225842  0.50032038    -0.71800
O1106       O  0.97261673  0.79698710  0.00001119    -0.71800
O1107       O  0.97282147  0.74985810  0.94709745    -0.71900
O1108       O  0.97246938  0.75031385  0.55210427    -0.71900
O1109       O  0.52764422  0.74926019  0.55231944    -0.71900
O1110       O  0.52718339  0.74872657  0.94826989    -0.71800
O1111       O  0.52765979  0.79690819  0.49997754    -0.71800
O1112       O  0.52686783  0.70155833  0.00120542    -0.71900
Ni1113     Ni  0.97025931  0.74988247  0.49980495     1.25400
Ni1114     Ni  0.52948201  0.74936309  0.50000694     1.25400
C1115       C  0.99971758  0.68663399  0.50043305     0.90400
C1116       C  0.00020466  0.81278829  0.49898269     0.90300
C1117       C  0.00062954  0.74970195  0.93028033     0.90300
C1118       C  0.00023916  0.75034561  0.56898387     0.90500
O1119       O  0.97333454  0.70161845  0.74945236    -0.71800
O1120       O  0.97373673  0.79672612  0.74943950    -0.71800
O1121       O  0.97341148  0.74936564  0.69725815    -0.71900
O1122       O  0.97358189  0.74917383  0.80184425    -0.71900
O1123       O  0.52817964  0.75004702  0.80273674    -0.71900
O1124       O  0.52840957  0.74870368  0.69796697    -0.71800
O1125       O  0.52850014  0.79689098  0.74951987    -0.71800
O1126       O  0.52833989  0.70195413  0.75124437    -0.71900
Ni1127     Ni  0.97154006  0.74920871  0.74952585     1.25400
Ni1128     Ni  0.53034401  0.74940130  0.75036410     1.25400
C1129       C  0.00094042  0.68594006  0.74932119     0.90400
C1130       C  0.00146351  0.81210475  0.74917043     0.90300
C1131       C  0.00103906  0.74944993  0.68013695     0.90300
C1132       C  0.00126092  0.74911171  0.81889726     0.90500
O1133       O  0.79805740  0.52721645  0.99891943    -0.71800
O1134       O  0.70329635  0.52770189  0.49975620    -0.71800
O1135       O  0.75077041  0.52763611  0.55207692    -0.71900
O1136       O  0.75030549  0.52685204  0.94677510    -0.71900
O1137       O  0.75058902  0.97276737  0.94784432    -0.71900
O1138       O  0.75023752  0.97168143  0.55209255    -0.71800
O1139       O  0.70285064  0.97243575  0.99988383    -0.71800
O1140       O  0.79810933  0.97199413  0.49995769    -0.71900
Ni1141     Ni  0.75047865  0.52907699  0.99911236     1.25400
Ni1142     Ni  0.75035393  0.97063270  0.00013505     1.25400
C1143       C  0.81368056  0.49958149  0.99906287     0.90400
C1144       C  0.68750236  0.49924456  0.99957198     0.90300
C1145       C  0.75089764  0.49985440  0.56893413     0.90300
C1146       C  0.75037168  0.49909147  0.92990108     0.90500
O1147       O  0.79844130  0.52682521  0.74960328    -0.71800
O1148       O  0.70336806  0.52663308  0.74904802    -0.71800
O1149       O  0.75061733  0.52653555  0.80165723    -0.71900
O1150       O  0.75107277  0.52694085  0.69710872    -0.71900
O1151       O  0.75030004  0.97123091  0.69819767    -0.71900
O1152       O  0.75070848  0.97214806  0.80293160    -0.71800
O1153       O  0.70301049  0.97195884  0.75092689    -0.71800
O1154       O  0.79808400  0.97130296  0.75044288    -0.71900
Ni1155     Ni  0.75087769  0.52871789  0.74937241     1.25400
Ni1156     Ni  0.75052280  0.96967010  0.75062637     1.25400
C1157       C  0.81405411  0.49918597  0.74960104     0.90400
C1158       C  0.68794095  0.49893747  0.74872867     0.90300
C1159       C  0.75055412  0.49880603  0.81863379     0.90300
C1160       C  0.75117768  0.49932411  0.67999229     0.90500
C1161       C  0.75033629  0.49872966  0.85780268    -0.10600
C1162       C  0.75028374  0.49887709  0.89072360    -0.12200
C1163       C  0.75110051  0.49947774  0.64089944    -0.10600
C1164       C  0.75097573  0.49963091  0.60802638    -0.12200
C1165       C  0.00095906  0.74960646  0.89106178    -0.10600
C1166       C  0.00121947  0.74936014  0.85811563    -0.12200
C1167       C  0.00050051  0.75041775  0.60811454    -0.10600
C1168       C  0.00085847  0.75005275  0.64100768    -0.12200
C1169       C  0.65235430  0.49892586  0.74824552    -0.10600
C1170       C  0.62244546  0.49914535  0.74788479    -0.12200
C1171       C  0.87965931  0.49922196  0.75018667    -0.10600
C1172       C  0.84971093  0.49925521  0.74980807    -0.12200
C1173       C  0.00132184  0.87763029  0.74799237    -0.10600
C1174       C  0.00153970  0.84771132  0.74854333    -0.12200
C1175       C  0.00082594  0.62030516  0.74927510    -0.10600
C1176       C  0.00080522  0.65026449  0.74916628    -0.12200
C1177       C  0.62191858  0.49898502  0.00067502    -0.10600
C1178       C  0.65185662  0.49910437  0.00000053    -0.12200
C1179       C  0.87927364  0.49952317  0.99875246    -0.10600
C1180       C  0.84932982  0.49963683  0.99893972    -0.12200
C1181       C  0.00032629  0.87831526  0.49924777    -0.10600
C1182       C  0.00034402  0.84839729  0.49889178    -0.12200
C1183       C  0.99981556  0.65096202  0.50086348    -0.10600
C1184       C  0.00043537  0.62100818  0.50117617    -0.12200
loop_ 
_geom_bond_atom_site_label_1 
_geom_bond_atom_site_label_2 
_geom_bond_distance 
_geom_bond_site_symmetry_2 
_ccdc_geom_bond_type 
N1            C6   1.353   1_556  A
N1          C153   1.354   1_556  A
N1           H33   1.038       .  S
N2            C9   1.352       .  A
N2           C10   1.353       .  A
N3            C8   1.355   1_556  A
N3          C155   1.355   1_556  A
N3           H34   1.038       .  S
N4           C11   1.352       .  A
N4           C12   1.352       .  A
C5          N149   1.355       .  A
C5           C13   1.387       .  A
C5           C21   1.417       .  A
C6           C22   1.416   1_544  A
C6           C14   1.388       .  A
C7          N151   1.355       .  A
C7           C15   1.388       .  A
C7          C320   1.418       .  A
C8           C16   1.387       .  A
C8          C615   1.418       .  A
C9           C17   1.387       .  A
C9          C613   1.414       .  A
C10          C24   1.414   1_545  A
C10          C18   1.387       .  A
C11          C19   1.386       .  A
C11         C318   1.413       .  A
C12          C20   1.387       .  A
C12          C23   1.413       .  A
C13         C162   1.377       .  A
C13          H25   1.082       .  S
C14         C161   1.375       .  A
C14          H26   1.082       .  S
C15         C164   1.376       .  A
C15          H27   1.082       .  S
C16         C163   1.378       .  A
C16          H28   1.082       .  S
C17          C18   1.375       .  A
C17          H29   1.082       .  S
C18          H30   1.082       .  S
C19          C20   1.374       .  A
C19          H31   1.082       .  S
C20          H32   1.082       .  S
C21         C601   1.414       .  A
C21         C296   1.456       .  S
C22         C307   1.413       .  A
C22         C291   1.452       .  S
C23         C600   1.416   1_554  A
C23         C145   1.453       .  S
C24         C303   1.415       .  A
C24         C141   1.455       .  S
N35          C40   1.354       .  A
N35          C39   1.355       .  A
N35          H67   1.038       .  S
N36          C43   1.353       .  A
N36          C44   1.353       .  A
N37          C42   1.355       .  A
N37          C41   1.355       .  A
N37          H68   1.038       .  S
N38          C45   1.352       .  A
N38          C46   1.351       .  A
C39          C47   1.388       .  A
C39          C55   1.416       .  A
C40          C56   1.416   1_545  A
C40          C48   1.388       .  A
C41          C49   1.387       .  A
C41         C354   1.418       .  A
C42          C50   1.388       .  A
C42         C649   1.418       .  A
C43          C51   1.387       .  A
C43         C647   1.415       .  A
C44          C58   1.415   1_545  A
C44          C52   1.387       .  A
C45          C53   1.386       .  A
C45         C352   1.413       .  A
C46          C54   1.387       .  A
C46          C57   1.413       .  A
C47          C48   1.376       .  A
C47          H59   1.082       .  S
C48          H60   1.082       .  S
C49          C50   1.379       .  A
C49          H61   1.082       .  S
C50          H62   1.082       .  S
C51          C52   1.374       .  A
C51          H63   1.082       .  S
C52          H64   1.082       .  S
C53          C54   1.375       .  A
C53          H65   1.082       .  S
C54          H66   1.082       .  S
C55         C635   1.414       .  A
C55         C139   1.455       .  S
C56         C341   1.415       .  A
C56         C135   1.455       .  S
C57         C634   1.415       .  A
C57         C137   1.453       .  S
C58         C337   1.416       .  A
C58         C134   1.456       .  S
O69         Ni77   1.920   1_554  S
O69          C79   1.280       .  A
O70        Ni225   1.923       .  S
O70         C228   1.281       .  A
O71        Ni225   1.918       .  S
O71          C81   1.280       .  A
O72         Ni77   1.918   1_554  S
O72          C82   1.280       .  A
O73         Ni78   1.918       .  S
O73         C674   1.280   1_455  A
O74        Ni226   1.918       .  S
O74         C673   1.280   1_455  A
O75         Ni78   1.919       .  S
O75         C672   1.279   1_455  A
O76        Ni226   1.922       .  S
O76         C819   1.280   1_455  A
Ni77        O218   1.920       .  S
Ni77        O219   1.918       .  S
Ni77       Ni670   2.394       .  S
Ni78        O222   1.917   1_554  S
Ni78        O224   1.919   1_554  S
Ni78       Ni669   2.393   1_454  S
C79         C147   1.436   1_554  S
C79         O816   1.280       .  A
C80         C146   1.437       .  S
C80         O218   1.280       .  A
C80         O667   1.280       .  A
C81         C129   1.434       .  S
C81         O666   1.279       .  A
C82         C131   1.434       .  S
C82         O665   1.279       .  A
O83         Ni91   1.922       .  S
O83          C93   1.281       .  A
O84         Ni91   1.922       .  S
O84          C94   1.281       .  A
O85         Ni91   1.916       .  S
O85          C95   1.279       .  A
O86         Ni91   1.916       .  S
O86          C96   1.279       .  A
O87         Ni92   1.919       .  S
O87         C688   1.280   1_455  A
O88         Ni92   1.919       .  S
O88         C687   1.280   1_455  A
O89         Ni92   1.919       .  S
O89         C686   1.279   1_455  A
O90         Ni92   1.919       .  S
O90         C685   1.280   1_455  A
Ni91       Ni684   2.394       .  S
Ni92       Ni683   2.393   1_455  S
C93         C140   1.440       .  S
C93         O682   1.280       .  A
C94         C138   1.439       .  S
C94         O681   1.280       .  A
C95         C132   1.434       .  S
C95         O680   1.280       .  A
C96         C130   1.434       .  S
C96         O679   1.280       .  A
O97        Ni105   1.921       .  S
O97         C107   1.280   1_545  A
O98        Ni253   1.919   1_554  S
O98         C256   1.280   1_545  A
O99        Ni253   1.917   1_554  S
O99         C109   1.279   1_545  A
O100       Ni105   1.917       .  S
O100        C110   1.279   1_545  A
O101       Ni106   1.918       .  S
O101        C406   1.280       .  A
O102       Ni254   1.917       .  S
O102        C405   1.280       .  A
O103       Ni106   1.922       .  S
O103        C404   1.280       .  A
O104       Ni254   1.920       .  S
O104        C551   1.280       .  A
Ni105       O246   1.921       .  S
Ni105       O247   1.918       .  S
Ni105      Ni402   2.394   1_545  S
Ni106       O250   1.918       .  S
Ni106       O252   1.920       .  S
Ni106      Ni401   2.393       .  S
C107        C144   1.440       .  S
C107        O548   1.281       .  A
C108        C142   1.440       .  S
C108        O246   1.280   1_565  A
C108        O399   1.281       .  A
C109        C128   1.433       .  S
C109        O398   1.279       .  A
C110        C126   1.431       .  S
C110        O397   1.279       .  A
O111       Ni119   1.922       .  S
O111        C121   1.280   1_545  A
O112       Ni119   1.922       .  S
O112        C122   1.281   1_545  A
O113       Ni119   1.914       .  S
O113        C123   1.279   1_545  A
O114       Ni119   1.916       .  S
O114        C124   1.279   1_545  A
O115       Ni120   1.919       .  S
O115        C420   1.280       .  A
O116       Ni120   1.920       .  S
O116        C419   1.280       .  A
O117       Ni120   1.921       .  S
O117        C418   1.280       .  A
O118       Ni120   1.921       .  S
O118        C417   1.280       .  A
Ni119      Ni416   2.394   1_545  S
Ni120      Ni415   2.393       .  S
C121        C136   1.440       .  S
C121        O414   1.281       .  A
C122        C133   1.441       .  S
C122        O413   1.281       .  A
C123        C125   1.431       .  S
C123        O412   1.279       .  A
C124        C127   1.432       .  S
C124        O411   1.279       .  A
C125        C126   1.204       .  T
C127        C128   1.204       .  T
C129        C130   1.205       .  T
C131        C132   1.205       .  T
C133        C134   1.210       .  T
C135        C136   1.209       .  T
C137        C138   1.208       .  T
C139        C140   1.209       .  T
C141        C142   1.209       .  T
C143        C170   1.455       .  S
C143        C144   1.209       .  T
C145        C146   1.207   1_554  T
C147        C148   1.207       .  T
C148        C169   1.452       .  S
N149        C154   1.355       .  A
N149        H181   1.036       .  S
N150        C157   1.353       .  A
N150        C158   1.353       .  A
N151        C156   1.356       .  A
N151        H182   1.038       .  S
N152        C159   1.353       .  A
N152        C160   1.352       .  A
C153        C161   1.388       .  A
C153        C169   1.416   1_554  A
C154        C170   1.417   1_545  A
C154        C162   1.388       .  A
C155        C163   1.388       .  A
C155        C468   1.419   1_554  A
C156        C763   1.418       .  A
C156        C164   1.387       .  A
C157        C761   1.417   1_554  A
C157        C165   1.387       .  A
C158        C172   1.416   1_545  A
C158        C166   1.387       .  A
C159        C167   1.387       .  A
C159        C466   1.414       .  A
C160        C168   1.387       .  A
C160        C171   1.415       .  A
C161        H173   1.082       .  S
C162        H174   1.082       .  S
C163        H175   1.082       .  S
C164        H176   1.082       .  S
C165        C166   1.373       .  A
C165        H177   1.082       .  S
C166        H178   1.082       .  S
C167        C168   1.373       .  A
C167        H179   1.082       .  S
C168        H180   1.082       .  S
C169        C749   1.413       .  A
C170        C455   1.415       .  A
C171        C748   1.418       .  A
C171        C293   1.455       .  S
C172        C451   1.418       .  A
C172        C289   1.454       .  S
N183        C188   1.354       .  A
N183        C187   1.354       .  A
N183        H215   1.036       .  S
N184        C191   1.353       .  A
N184        C192   1.353       .  A
N185        C190   1.354       .  A
N185        C189   1.354       .  A
N185        H216   1.038       .  S
N186        C193   1.352       .  A
N186        C194   1.351       .  A
C187        C195   1.388       .  A
C187        C203   1.417       .  A
C188        C204   1.417   1_545  A
C188        C196   1.388       .  A
C189        C197   1.388       .  A
C189        C502   1.416       .  A
C190        C797   1.416       .  A
C190        C198   1.388       .  A
C191        C795   1.416       .  A
C191        C199   1.387       .  A
C192        C206   1.415   1_545  A
C192        C200   1.387       .  A
C193        C201   1.387       .  A
C193        C500   1.416       .  A
C194        C202   1.387       .  A
C194        C205   1.415       .  A
C195        C196   1.376       .  A
C195        H207   1.082       .  S
C196        H208   1.082       .  S
C197        C198   1.377       .  A
C197        H209   1.082       .  S
C198        H210   1.082       .  S
C199        C200   1.373       .  A
C199        H211   1.082       .  S
C200        H212   1.082       .  S
C201        C202   1.372       .  A
C201        H213   1.082       .  S
C202        H214   1.082       .  S
C203        C783   1.414       .  A
C203        C287   1.453       .  S
C204        C489   1.415       .  A
C204        C283   1.453       .  S
C205        C782   1.419       .  A
C205        C285   1.455       .  S
C206        C485   1.416       .  A
C206        C282   1.454       .  S
O217       Ni225   1.923       .  S
O217        C227   1.281       .  A
O219        C229   1.280       .  A
O220       Ni225   1.918       .  S
O220        C230   1.280       .  A
O221       Ni226   1.917       .  S
O221        C822   1.279       .  A
O222        C821   1.279   1_455  A
O223       Ni226   1.921       .  S
O223        C820   1.280   1_455  A
O224        C671   1.280   1_455  A
Ni225      Ni818   2.393       .  S
Ni226      Ni817   2.393   1_455  S
C227        C295   1.441       .  S
C227        O668   1.281       .  A
C228        C294   1.440       .  S
C228        O815   1.280       .  A
C229        C277   1.434       .  S
C229        O814   1.279       .  A
C230        C279   1.435       .  S
C230        O813   1.280       .  A
O231       Ni239   1.920       .  S
O231        C241   1.280       .  A
O232       Ni239   1.921       .  S
O232        C242   1.280       .  A
O233       Ni239   1.917       .  S
O233        C243   1.280       .  A
O234       Ni239   1.916       .  S
O234        C244   1.279       .  A
O235       Ni240   1.916       .  S
O235        C836   1.279       .  A
O236       Ni240   1.917       .  S
O236        C835   1.280       .  A
O237       Ni240   1.920       .  S
O237        C834   1.280       .  A
O238       Ni240   1.922       .  S
O238        C833   1.281       .  A
Ni239      Ni832   2.394       .  S
Ni240      Ni831   2.394   1_455  S
C241        C288   1.437       .  S
C241        O830   1.280       .  A
C242        C286   1.439       .  S
C242        O829   1.280       .  A
C243        C280   1.435       .  S
C243        O828   1.280       .  A
C244        C278   1.434       .  S
C244        O827   1.280       .  A
O245       Ni253   1.918       .  S
O245        C255   1.280   1_545  A
O247        C257   1.280   1_545  A
O248       Ni253   1.919       .  S
O248        C258   1.280   1_545  A
O249       Ni254   1.916   1_556  S
O249        C554   1.279       .  A
O250        C553   1.280       .  A
O251       Ni254   1.920       .  S
O251        C552   1.280   1_554  A
O252        C403   1.280       .  A
Ni253      Ni550   2.394   1_546  S
Ni254      Ni549   2.393       .  S
C255        C292   1.436       .  S
C255        O400   1.280       .  A
C256        C290   1.438       .  S
C256        O547   1.280       .  A
C257        C276   1.435       .  S
C257        O546   1.279       .  A
C258        C274   1.438       .  S
C258        O545   1.280       .  A
O259       Ni267   1.919       .  S
O259        C269   1.280   1_545  A
O260       Ni267   1.919       .  S
O260        C270   1.280   1_545  A
O261       Ni267   1.920       .  S
O261        C271   1.280   1_545  A
O262       Ni267   1.918       .  S
O262        C272   1.280   1_545  A
O263       Ni268   1.916       .  S
O263        C568   1.279       .  A
O264       Ni268   1.916       .  S
O264        C567   1.279       .  A
O265       Ni268   1.921       .  S
O265        C566   1.280       .  A
O266       Ni268   1.920       .  S
O266        C565   1.280       .  A
Ni267      Ni564   2.393   1_545  S
Ni268      Ni563   2.394       .  S
C269        C284   1.437       .  S
C269        O562   1.280       .  A
C270        C281   1.438       .  S
C270        O561   1.281       .  A
C271        C273   1.438       .  S
C271        O560   1.280       .  A
C272        C275   1.435       .  S
C272        O559   1.280       .  A
C273        C274   1.208       .  T
C275        C276   1.206       .  T
C277        C278   1.205       .  T
C279        C280   1.206       .  T
C281        C282   1.208       .  T
C283        C284   1.208       .  T
C285        C286   1.208       .  T
C287        C288   1.208       .  T
C289        C290   1.208       .  T
C291        C292   1.207       .  T
C293        C294   1.209       .  T
C295        C296   1.209       .  T
N297        C302   1.354   1_554  A
N297        C449   1.354   1_554  A
N297        H329   1.037       .  S
N298        C305   1.353       .  A
N298        C306   1.353       .  A
N299        C304   1.355       .  A
N299        C451   1.355       .  A
N299        H330   1.034       .  S
N300        C307   1.352       .  A
N300        C308   1.352       .  A
C301        N445   1.354       .  A
C301        C309   1.387       .  A
C301        C317   1.414       .  A
C302        C318   1.414   1_556  A
C302        C310   1.387       .  A
C303        N447   1.354       .  A
C303        C311   1.388       .  A
C304        C911   1.419       .  A
C304        C312   1.388   1_554  A
C305        C909   1.415       .  A
C305        C313   1.386       .  A
C306        C320   1.416       .  A
C306        C314   1.387       .  A
C307        C315   1.387       .  A
C308        C316   1.387       .  A
C308        C319   1.414       .  A
C309        C458   1.375       .  A
C309        H321   1.082       .  S
C310        C457   1.376       .  A
C310        H322   1.082       .  S
C311        C460   1.376       .  A
C311        H323   1.082       .  S
C312        C459   1.375       .  A
C312        H324   1.082       .  S
C313        C314   1.373       .  A
C313        H325   1.082       .  S
C314        H326   1.082       .  S
C315        C316   1.373       .  A
C315        H327   1.082       .  S
C316        H328   1.082       .  S
C317        C897   1.413       .  A
C317        C592   1.452       .  S
C318        C587   1.454       .  S
C319        C896   1.417   1_556  A
C319        C441   1.455       .  S
C320        C437   1.457       .  S
N331        C336   1.354       .  A
N331        C335   1.354       .  A
N331        H363   1.040       .  S
N332        C339   1.353       .  A
N332        C340   1.353       .  A
N333        C338   1.355       .  A
N333        C337   1.354       .  A
N333        H364   1.036       .  S
N334        C341   1.353       .  A
N334        C342   1.354       .  A
C335        C343   1.387       .  A
C335        C351   1.414       .  A
C336        C352   1.414       .  A
C336        C344   1.387       .  A
C337        C345   1.388       .  A
C338        C945   1.416   1_455  A
C338        C346   1.388       .  A
C339        C943   1.414       .  A
C339        C347   1.386       .  A
C340        C354   1.414       .  A
C340        C348   1.387       .  A
C341        C349   1.387       .  A
C342        C350   1.386       .  A
C342        C353   1.415       .  A
C343        C344   1.377       .  A
C343        H355   1.082       .  S
C344        H356   1.082       .  S
C345        C346   1.377       .  A
C345        H357   1.082       .  S
C346        H358   1.082       .  S
C347        C348   1.374       .  A
C347        H359   1.082       .  S
C348        H360   1.082       .  S
C349        C350   1.374       .  A
C349        H361   1.082       .  S
C350        H362   1.082       .  S
C351        C931   1.413       .  A
C351        C435   1.454       .  S
C352        C431   1.456       .  S
C353        C930   1.416       .  A
C353        C433   1.458       .  S
C354        C430   1.458       .  S
O365       Ni373   1.926       .  S
O365        C375   1.282       .  A
O366       Ni521   1.922       .  S
O366        C524   1.281       .  A
O367       Ni521   1.918       .  S
O367        C377   1.280       .  A
O368       Ni373   1.917       .  S
O368        C378   1.280       .  A
O369       Ni374   1.918   1_554  S
O369        C970   1.280   1_455  A
O370       Ni522   1.915       .  S
O370        C969   1.279   1_455  A
O371       Ni374   1.920   1_554  S
O371        C968   1.280       .  A
O372       Ni522   1.920       .  S
O372       C1115   1.280   1_455  A
Ni373       O514   1.924   1_554  S
Ni373       O515   1.918   1_554  S
Ni373      Ni966   2.393       .  S
Ni374       O518   1.918       .  S
Ni374       O520   1.919       .  S
Ni374      Ni965   2.393   1_455  S
C375        C443   1.442       .  S
C375       O1112   1.280       .  A
C376        C442   1.439       .  S
C376        O514   1.281       .  A
C376        O963   1.280   1_556  A
C377        C425   1.433       .  S
C377        O962   1.279       .  A
C378        C427   1.433       .  S
C378        O961   1.279       .  A
O379       Ni387   1.925       .  S
O379        C389   1.281       .  A
O380       Ni387   1.926       .  S
O380        C390   1.282       .  A
O381       Ni387   1.915       .  S
O381        C391   1.279       .  A
O382       Ni387   1.915       .  S
O382        C392   1.279       .  A
O383       Ni388   1.917       .  S
O383        C984   1.280   1_455  A
O384       Ni388   1.918       .  S
O384        C983   1.280   1_455  A
O385       Ni388   1.922       .  S
O385        C982   1.281   1_455  A
O386       Ni388   1.921       .  S
O386        C981   1.280   1_455  A
Ni387      Ni980   2.393       .  S
Ni388      Ni979   2.393   1_455  S
C389        C436   1.440       .  S
C389        O978   1.280       .  A
C390        C434   1.443       .  S
C390        O977   1.280       .  A
C391        C428   1.433       .  S
C391        O976   1.280       .  A
C392        C426   1.433       .  S
C392        O975   1.280       .  A
O393       Ni401   1.923       .  S
O393        C403   1.281       .  A
O394       Ni549   1.925   1_556  S
O394        C552   1.281       .  A
O395       Ni549   1.917       .  S
O395        C405   1.280       .  A
O396       Ni401   1.918       .  S
O396        C406   1.280       .  A
O397       Ni402   1.914       .  S
O398       Ni550   1.917       .  S
O399       Ni402   1.924       .  S
O400       Ni550   1.920   1_556  S
Ni401       O542   1.924       .  S
Ni401       O543   1.917       .  S
Ni402       O546   1.916       .  S
Ni402       O548   1.923       .  S
C403        C440   1.439       .  S
C404        C438   1.441       .  S
C404        O542   1.281       .  A
C405        C424   1.434       .  S
C406        C422   1.436       .  S
O407       Ni415   1.927       .  S
O407        C417   1.282       .  A
O408       Ni415   1.928       .  S
O408        C418   1.282       .  A
O409       Ni415   1.918       .  S
O409        C419   1.279       .  A
O410       Ni415   1.916       .  S
O410        C420   1.279       .  A
O411       Ni416   1.916       .  S
O412       Ni416   1.915       .  S
O413       Ni416   1.924       .  S
O414       Ni416   1.922       .  S
C417        C432   1.442       .  S
C418        C429   1.444       .  S
C419        C421   1.436       .  S
C420        C423   1.434       .  S
C421        C422   1.207       .  T
C423        C424   1.205       .  T
C425        C426   1.205       .  T
C427        C428   1.205       .  T
C429        C430   1.211       .  T
C431        C432   1.210       .  T
C433        C434   1.211       .  T
C435        C436   1.209       .  T
C437        C438   1.210       .  T
C439        C466   1.454       .  S
C439        C440   1.209       .  T
C441        C442   1.209       .  T
C443        C444   1.210       .  T
C444        C465   1.457       .  S
N445        C450   1.354       .  A
N445        H477   1.038       .  S
N446        C453   1.352       .  A
N446        C454   1.352       .  A
N447        C452   1.354       .  A
N447        H478   1.039       .  S
N448        C455   1.352       .  A
N448        C456   1.352       .  A
C449        C457   1.387       .  A
C449        C465   1.415   1_556  A
C450        C466   1.415       .  A
C450        C458   1.387       .  A
C451        C459   1.388   1_554  A
C452       C1059   1.414       .  A
C452        C460   1.387       .  A
C453       C1057   1.413       .  A
C453        C461   1.387       .  A
C454        C468   1.415       .  A
C454        C462   1.387       .  A
C455        C463   1.387       .  A
C456        C464   1.387       .  A
C456        C467   1.414       .  A
C457        H469   1.082       .  S
C458        H470   1.082       .  S
C459        H471   1.082       .  S
C460        H472   1.082       .  S
C461        C462   1.373       .  A
C461        H473   1.082       .  S
C462        H474   1.082       .  S
C463        C464   1.373       .  A
C463        H475   1.082       .  S
C464        H476   1.082       .  S
C465       C1045   1.415       .  A
C467       C1044   1.416       .  A
C467        C589   1.454       .  S
C468        C585   1.456       .  S
N479        C484   1.355       .  A
N479        C483   1.355       .  A
N479        H511   1.033       .  S
N480        C487   1.352       .  A
N480        C488   1.352       .  A
N481        C486   1.354       .  A
N481        C485   1.354       .  A
N481        H512   1.036       .  S
N482        C489   1.352       .  A
N482        C490   1.352       .  A
C483        C491   1.388       .  A
C483        C499   1.419       .  A
C484        C500   1.419       .  A
C484        C492   1.388       .  A
C485        C493   1.388       .  A
C486       C1093   1.416       .  A
C486        C494   1.388       .  A
C487       C1091   1.414       .  A
C487        C495   1.387       .  A
C488        C502   1.413       .  A
C488        C496   1.387       .  A
C489        C497   1.387       .  A
C490        C498   1.387       .  A
C490        C501   1.415       .  A
C491        C492   1.373       .  A
C491        H503   1.082       .  S
C492        H504   1.082       .  S
C493        C494   1.375       .  A
C493        H505   1.082       .  S
C494        H506   1.082       .  S
C495        C496   1.374       .  A
C495        H507   1.082       .  S
C496        H508   1.082       .  S
C497        C498   1.372       .  A
C497        H509   1.082       .  S
C498        H510   1.082       .  S
C499       C1079   1.416       .  A
C499        C583   1.452       .  S
C500        C579   1.454       .  S
C501       C1078   1.417       .  A
C501        C581   1.453       .  S
C502        C578   1.454       .  S
O513       Ni521   1.921       .  S
O513        C523   1.281       .  A
O515        C525   1.280       .  A
O516       Ni521   1.919       .  S
O516        C526   1.280       .  A
O517       Ni522   1.915       .  S
O517       C1118   1.279       .  A
O518       C1117   1.280       .  A
O519       Ni522   1.919       .  S
O519       C1116   1.280       .  A
O520        C967   1.280   1_455  A
Ni521     Ni1114   2.394       .  S
Ni522     Ni1113   2.394   1_455  S
C523        C591   1.437       .  S
C523        O964   1.280       .  A
C524        C590   1.439       .  S
C524       O1111   1.280       .  A
C525        C573   1.435       .  S
C525       O1110   1.280       .  A
C526        C575   1.436       .  S
C526       O1109   1.279       .  A
O527       Ni535   1.921       .  S
O527        C537   1.280       .  A
O528       Ni535   1.921       .  S
O528        C538   1.280       .  A
O529       Ni535   1.917       .  S
O529        C539   1.279       .  A
O530       Ni535   1.917       .  S
O530        C540   1.279       .  A
O531       Ni536   1.919       .  S
O531       C1132   1.280       .  A
O532       Ni536   1.918       .  S
O532       C1131   1.280       .  A
O533       Ni536   1.920       .  S
O533       C1130   1.280       .  A
O534       Ni536   1.922       .  S
O534       C1129   1.281       .  A
Ni535     Ni1128   2.394       .  S
Ni536     Ni1127   2.394   1_455  S
C537        C584   1.435       .  S
C537       O1126   1.279       .  A
C538        C582   1.436       .  S
C538       O1125   1.280       .  A
C539        C576   1.436       .  S
C539       O1124   1.280       .  A
C540        C574   1.435       .  S
C540       O1123   1.280       .  A
O541       Ni549   1.924       .  S
O541        C551   1.281       .  A
O543        C553   1.279       .  A
O544       Ni549   1.916   1_556  S
O544        C554   1.279       .  A
O545       Ni550   1.920   1_556  S
O547       Ni550   1.920       .  S
C551        C588   1.440       .  S
C552        C586   1.441       .  S
C553        C572   1.434       .  S
C554        C570   1.432       .  S
O555       Ni563   1.921       .  S
O555        C565   1.280       .  A
O556       Ni563   1.922       .  S
O556        C566   1.281       .  A
O557       Ni563   1.916       .  S
O557        C567   1.279       .  A
O558       Ni563   1.917       .  S
O558        C568   1.280       .  A
O559       Ni564   1.919       .  S
O560       Ni564   1.920       .  S
O561       Ni564   1.922       .  S
O562       Ni564   1.921       .  S
C565        C580   1.438       .  S
C566        C577   1.439       .  S
C567        C569   1.432       .  S
C568        C571   1.434       .  S
C569        C570   1.204       .  T
C571        C572   1.205       .  T
C573        C574   1.206       .  T
C575        C576   1.206       .  T
C577        C578   1.209       .  T
C579        C580   1.208       .  T
C581        C582   1.207       .  T
C583        C584   1.207       .  T
C585        C586   1.210       .  T
C587        C588   1.209       .  T
C589        C590   1.208       .  T
C591        C592   1.207       .  T
N593        C598   1.354   1_554  A
N593        C745   1.354   1_554  A
N593        H625   1.032       .  S
N594        C601   1.352       .  A
N594        C602   1.352       .  A
N595        C600   1.355   1_554  A
N595        C747   1.354   1_554  A
N595        H626   1.036       .  S
N596        C603   1.352       .  A
N596        C604   1.352       .  A
C597        N741   1.354       .  A
C597        C605   1.388       .  A
C597        C613   1.415   1_655  A
C598        C614   1.418   1_546  A
C598        C606   1.388       .  A
C599        N743   1.355       .  A
C599        C607   1.387       .  A
C599        C912   1.417       .  A
C600        C608   1.388       .  A
C601        C609   1.387       .  A
C602        C616   1.413   1_545  A
C602        C610   1.387       .  A
C603        C611   1.386       .  A
C603        C910   1.412       .  A
C604        C612   1.387       .  A
C604        C615   1.414   1_656  A
C605        C754   1.377       .  A
C605        H617   1.082       .  S
C606        C753   1.375       .  A
C606        H618   1.082       .  S
C607        C756   1.376       .  A
C607        H619   1.082       .  S
C608        C755   1.376       .  A
C608        H620   1.082       .  S
C609        C610   1.374       .  A
C609        H621   1.082       .  S
C610        H622   1.082       .  S
C611        C612   1.373       .  A
C611        H623   1.082       .  S
C612        H624   1.082       .  S
C613        C888   1.456       .  S
C614        C899   1.417       .  A
C614        C883   1.456       .  S
C615        C737   1.455       .  S
C616        C895   1.416       .  A
C616        C733   1.454       .  S
N627        C632   1.355       .  A
N627        C631   1.354       .  A
N627        H659   1.037       .  S
N628        C635   1.352       .  A
N628        C636   1.352       .  A
N629        C634   1.354       .  A
N629        C633   1.354       .  A
N629        H660   1.039       .  S
N630        C637   1.352       .  A
N630        C638   1.351       .  A
C631        C639   1.388       .  A
C631        C647   1.416   1_655  A
C632        C648   1.416   1_545  A
C632        C640   1.387       .  A
C633        C641   1.388       .  A
C633        C946   1.415       .  A
C634        C642   1.388       .  A
C635        C643   1.387       .  A
C636        C650   1.414       .  A
C636        C644   1.387       .  A
C637        C645   1.386       .  A
C637        C944   1.412       .  A
C638        C646   1.387       .  A
C638        C649   1.413   1_655  A
C639        C640   1.376       .  A
C639        H651   1.082       .  S
C640        H652   1.082       .  S
C641        C642   1.378       .  A
C641        H653   1.082       .  S
C642        H654   1.082       .  S
C643        C644   1.374       .  A
C643        H655   1.082       .  S
C644        H656   1.082       .  S
C645        C646   1.374       .  A
C645        H657   1.082       .  S
C646        H658   1.082       .  S
C647        C731   1.456       .  S
C648        C933   1.414       .  A
C648        C727   1.455   1_565  S
C649        C729   1.455   1_455  S
C650        C929   1.416   1_545  A
C650        C726   1.454   1_545  S
O661       Ni669   1.925       .  S
O661        C671   1.281       .  A
O662       Ni817   1.924       .  S
O662        C820   1.281       .  A
O663       Ni817   1.918       .  S
O663        C673   1.280       .  A
O664       Ni669   1.917   1_554  S
O664        C674   1.280       .  A
O665       Ni670   1.916   1_554  S
O666       Ni818   1.917       .  S
O667       Ni670   1.919       .  S
O668       Ni818   1.922       .  S
Ni669       O810   1.926   1_556  S
Ni669       O811   1.916       .  S
Ni670       O814   1.916       .  S
Ni670       O816   1.919   1_556  S
C671        C739   1.439       .  S
C672        C738   1.440       .  S
C672        O810   1.282       .  A
C673        C721   1.435       .  S
C674        C723   1.435       .  S
O675       Ni683   1.925       .  S
O675        C685   1.282       .  A
O676       Ni683   1.925       .  S
O676        C686   1.282       .  A
O677       Ni683   1.917       .  S
O677        C687   1.279       .  A
O678       Ni683   1.917       .  S
O678        C688   1.279       .  A
O679       Ni684   1.918       .  S
O680       Ni684   1.918       .  S
O681       Ni684   1.921       .  S
O682       Ni684   1.921       .  S
C685        C732   1.441       .  S
C686        C730   1.440       .  S
C687        C724   1.435       .  S
C688        C722   1.436       .  S
O689       Ni697   1.922       .  S
O689        C699   1.281   1_545  A
O690       Ni845   1.923       .  S
O690        C848   1.281   1_554  A
O691       Ni845   1.915       .  S
O691        C701   1.279       .  A
O692       Ni697   1.919       .  S
O692        C702   1.280   1_545  A
O693       Ni698   1.917       .  S
O693        C998   1.279       .  A
O694       Ni846   1.918   1_554  S
O694        C997   1.280       .  A
O695       Ni698   1.920       .  S
O695        C996   1.280       .  A
O696       Ni846   1.921       .  S
O696       C1143   1.280       .  A
Ni697       O838   1.922       .  S
Ni697       O839   1.921       .  S
Ni697      Ni994   2.393   1_545  S
Ni698       O842   1.915       .  S
Ni698       O844   1.918       .  S
Ni698      Ni993   2.394       .  S
C699        C736   1.440       .  S
C699       O1140   1.281       .  A
C700        C734   1.439       .  S
C700        O838   1.280   1_565  A
C700        O991   1.280       .  A
C701        C720   1.432       .  S
C701        O990   1.279   1_545  A
C702        C718   1.435   1_565  S
C702        O989   1.279       .  A
O703       Ni711   1.923       .  S
O703        C713   1.281       .  A
O704       Ni711   1.921       .  S
O704        C714   1.280   1_545  A
O705       Ni711   1.917       .  S
O705        C715   1.279   1_545  A
O706       Ni711   1.916       .  S
O706        C716   1.279       .  A
O707       Ni712   1.920       .  S
O707       C1012   1.280       .  A
O708       Ni712   1.919       .  S
O708       C1011   1.280       .  A
O709       Ni712   1.921       .  S
O709       C1010   1.280       .  A
O710       Ni712   1.919       .  S
O710       C1009   1.280       .  A
Ni711     Ni1008   2.394   1_545  S
Ni712     Ni1007   2.393       .  S
C713        C728   1.440       .  S
C713       O1006   1.280   1_545  A
C714        C725   1.439       .  S
C714       O1005   1.280       .  A
C715        C717   1.434       .  S
C715       O1004   1.280       .  A
C716        C719   1.432       .  S
C716       O1003   1.279   1_545  A
C717        C718   1.206   1_565  T
C719        C720   1.204       .  T
C721        C722   1.206       .  T
C723        C724   1.206       .  T
C725        C726   1.208       .  T
C727        C728   1.209       .  T
C729        C730   1.209       .  T
C731        C732   1.210   1_455  T
C733        C734   1.209       .  T
C735        C762   1.455       .  S
C735        C736   1.209       .  T
C737        C738   1.209   1_455  T
C739        C740   1.209   1_655  T
C740        C761   1.455       .  S
N741        C746   1.354       .  A
N741        H773   1.040       .  S
N742        C749   1.352       .  A
N742        C750   1.352       .  A
N743        C748   1.355       .  A
N743        H774   1.037       .  S
N744        C751   1.352       .  A
N744        C752   1.352       .  A
C745        C753   1.388       .  A
C745        C761   1.418   1_655  A
C746        C762   1.414   1_545  A
C746        C754   1.387       .  A
C747        C755   1.388       .  A
C747       C1060   1.417   1_556  A
C748        C756   1.388       .  A
C749        C757   1.387       .  A
C750        C764   1.414   1_545  A
C750        C758   1.387       .  A
C751        C759   1.387       .  A
C751       C1058   1.414       .  A
C752        C760   1.387       .  A
C752        C763   1.415   1_655  A
C753        H765   1.082       .  S
C754        H766   1.082       .  S
C755        H767   1.082       .  S
C756        H768   1.082       .  S
C757        C758   1.372       .  A
C757        H769   1.082       .  S
C758        H770   1.082       .  S
C759        C760   1.373       .  A
C759        H771   1.082       .  S
C760        H772   1.082       .  S
C762       C1047   1.412       .  A
C763        C885   1.456       .  S
C764       C1043   1.417   1_556  A
C764        C881   1.453       .  S
N775        C780   1.355       .  A
N775        C779   1.355       .  A
N775        H807   1.035       .  S
N776        C783   1.352       .  A
N776        C784   1.352       .  A
N777        C782   1.357       .  A
N777        C781   1.356       .  A
N777        H808   1.036       .  S
N778        C785   1.352       .  A
N778        C786   1.352       .  A
C779        C787   1.388       .  A
C779        C795   1.418   1_655  A
C780        C796   1.418   1_545  A
C780        C788   1.388       .  A
C781        C789   1.388       .  A
C781       C1094   1.418       .  A
C782        C790   1.387       .  A
C783        C791   1.387       .  A
C784        C798   1.414   1_545  A
C784        C792   1.387       .  A
C785        C793   1.387       .  A
C785       C1092   1.413       .  A
C786        C794   1.387       .  A
C786        C797   1.414   1_655  A
C787        C788   1.375       .  A
C787        H799   1.082       .  S
C788        H800   1.082       .  S
C789        C790   1.373       .  A
C789        H801   1.082       .  S
C790        H802   1.082       .  S
C791        C792   1.372       .  A
C791        H803   1.082       .  S
C792        H804   1.082       .  S
C793        C794   1.374       .  A
C793        H805   1.082       .  S
C794        H806   1.082       .  S
C795        C879   1.456       .  S
C796       C1081   1.415       .  A
C796        C875   1.454       .  S
C797        C877   1.453       .  S
C798       C1077   1.417       .  A
C798        C874   1.453       .  S
O809       Ni817   1.925       .  S
O809        C819   1.281       .  A
O811        C821   1.279       .  A
O812       Ni817   1.917       .  S
O812        C822   1.280   1_655  A
O813       Ni818   1.918       .  S
O815       Ni818   1.922       .  S
C819        C887   1.442       .  S
C820        C886   1.441   1_655  S
C821        C869   1.433       .  S
C822        C871   1.434       .  S
O823       Ni831   1.923       .  S
O823        C833   1.281   1_655  A
O824       Ni831   1.921       .  S
O824        C834   1.280   1_655  A
O825       Ni831   1.916       .  S
O825        C835   1.279   1_655  A
O826       Ni831   1.915       .  S
O826        C836   1.279   1_655  A
O827       Ni832   1.918       .  S
O828       Ni832   1.919       .  S
O829       Ni832   1.921       .  S
O830       Ni832   1.921       .  S
C833        C880   1.440       .  S
C834        C878   1.438       .  S
C835        C872   1.434       .  S
C836        C870   1.433       .  S
O837       Ni845   1.925       .  S
O837        C847   1.281       .  A
O839        C849   1.280   1_545  A
O840       Ni845   1.916   1_556  S
O840        C850   1.279       .  A
O841       Ni846   1.917       .  S
O841       C1146   1.279       .  A
O842       C1145   1.279       .  A
O843       Ni846   1.920       .  S
O843       C1144   1.280       .  A
O844        C995   1.280       .  A
Ni845     Ni1142   2.394   1_545  S
Ni846     Ni1141   2.393       .  S
C847        C884   1.440       .  S
C847        O992   1.280   1_545  A
C848        C882   1.438   1_545  S
C848       O1139   1.279   1_545  A
C849        C868   1.437       .  S
C849       O1138   1.280       .  A
C850        C866   1.433       .  S
C850       O1137   1.280   1_545  A
O851       Ni859   1.921       .  S
O851        C861   1.280   1_545  A
O852       Ni859   1.921       .  S
O852        C862   1.280   1_545  A
O853       Ni859   1.916       .  S
O853        C863   1.279   1_545  A
O854       Ni859   1.918       .  S
O854        C864   1.280   1_545  A
O855       Ni860   1.915       .  S
O855       C1160   1.279       .  A
O856       Ni860   1.917       .  S
O856       C1159   1.280       .  A
O857       Ni860   1.920       .  S
O857       C1158   1.280       .  A
O858       Ni860   1.921       .  S
O858       C1157   1.280       .  A
Ni859     Ni1156   2.394   1_545  S
Ni860     Ni1155   2.394       .  S
C861        C876   1.438       .  S
C861       O1154   1.280       .  A
C862        C873   1.437       .  S
C862       O1153   1.280       .  A
C863        C865   1.433   1_565  S
C863       O1152   1.280       .  A
C864        C867   1.437       .  S
C864       O1151   1.280       .  A
C865        C866   1.205       .  T
C867        C868   1.207       .  T
C869        C870   1.204   1_655  T
C871        C872   1.205       .  T
C873        C874   1.208       .  T
C875        C876   1.208       .  T
C877        C878   1.208       .  T
C879        C880   1.209       .  T
C881        C882   1.208       .  T
C883        C884   1.209   1_565  T
C885        C886   1.210       .  T
C887        C888   1.210   1_655  T
N889        C894   1.354   1_556  A
N889       C1041   1.354   1_556  A
N889        H921   1.039       .  S
N890        C897   1.352       .  A
N890        C898   1.352       .  A
N891        C896   1.354   1_556  A
N891       C1043   1.354   1_556  A
N891        H922   1.038       .  S
N892        C899   1.354       .  A
N892        C900   1.353       .  A
C893       N1037   1.354       .  A
C893        C901   1.387       .  A
C893        C909   1.415   1_655  A
C894        C910   1.415   1_554  A
C894        C902   1.387       .  A
C895       N1039   1.355       .  A
C895        C903   1.388       .  A
C896        C904   1.388       .  A
C897        C905   1.387       .  A
C898        C912   1.414       .  A
C898        C906   1.387       .  A
C899        C907   1.387       .  A
C900        C908   1.387       .  A
C900        C911   1.416   1_655  A
C901       C1050   1.374       .  A
C901        H913   1.082       .  S
C902       C1049   1.375       .  A
C902        H914   1.082       .  S
C903       C1052   1.376       .  A
C903        H915   1.082       .  S
C904       C1051   1.377       .  A
C904        H916   1.082       .  S
C905        C906   1.373       .  A
C905        H917   1.082       .  S
C906        H918   1.082       .  S
C907        C908   1.373       .  A
C907        H919   1.082       .  S
C908        H920   1.082       .  S
C909       C1184   1.455       .  S
C910       C1179   1.454       .  S
C911       C1033   1.454       .  S
C912       C1029   1.454       .  S
N923        C928   1.354       .  A
N923        C927   1.353       .  A
N923        H955   1.038       .  S
N924        C931   1.352       .  A
N924        C932   1.352       .  A
N925        C930   1.355       .  A
N925        C929   1.354       .  A
N925        H956   1.038       .  S
N926        C933   1.353       .  A
N926        C934   1.353       .  A
C927        C935   1.387       .  A
C927        C943   1.414   1_655  A
C928        C944   1.414       .  A
C928        C936   1.387       .  A
C929        C937   1.388       .  A
C930        C938   1.387       .  A
C931        C939   1.387       .  A
C932        C946   1.413       .  A
C932        C940   1.387       .  A
C933        C941   1.387       .  A
C934        C942   1.387       .  A
C934        C945   1.414       .  A
C935        C936   1.376       .  A
C935        H947   1.082       .  S
C936        H948   1.082       .  S
C937        C938   1.377       .  A
C937        H949   1.082       .  S
C938        H950   1.082       .  S
C939        C940   1.375       .  A
C939        H951   1.082       .  S
C940        H952   1.082       .  S
C941        C942   1.374       .  A
C941        H953   1.082       .  S
C942        H954   1.082       .  S
C943       C1027   1.454       .  S
C944       C1023   1.453       .  S
C945       C1025   1.456       .  S
C946       C1022   1.454       .  S
O957       Ni965   1.921       .  S
O957        C967   1.280       .  A
O958      Ni1113   1.920       .  S
O958       C1116   1.280   1_655  A
O959      Ni1113   1.917       .  S
O959        C969   1.280       .  A
O960       Ni965   1.919   1_554  S
O960        C970   1.280       .  A
O961       Ni966   1.916       .  S
O962      Ni1114   1.915       .  S
O963       Ni966   1.920       .  S
O964      Ni1114   1.918       .  S
Ni965      O1106   1.921   1_556  S
Ni965      O1107   1.919       .  S
Ni966      O1110   1.917   1_554  S
Ni966      O1112   1.921       .  S
C967       C1035   1.437       .  S
C968       C1034   1.438       .  S
C968       O1106   1.281   1_455  A
C969       C1017   1.433       .  S
C970       C1019   1.435       .  S
O971       Ni979   1.923       .  S
O971        C981   1.281       .  A
O972       Ni979   1.923       .  S
O972        C982   1.281       .  A
O973       Ni979   1.917       .  S
O973        C983   1.279       .  A
O974       Ni979   1.915       .  S
O974        C984   1.279       .  A
O975       Ni980   1.918       .  S
O976       Ni980   1.917       .  S
O977       Ni980   1.922       .  S
O978       Ni980   1.921       .  S
C981       C1028   1.439       .  S
C982       C1026   1.441       .  S
C983       C1020   1.435       .  S
C984       C1018   1.433       .  S
O985       Ni993   1.921       .  S
O985        C995   1.280       .  A
O986      Ni1141   1.921       .  S
O986       C1144   1.280       .  A
O987      Ni1141   1.920   1_554  S
O987        C997   1.280       .  A
O988       Ni993   1.917       .  S
O988        C998   1.280       .  A
O989       Ni994   1.917       .  S
O990      Ni1142   1.916       .  S
O991       Ni994   1.921       .  S
O992      Ni1142   1.919       .  S
Ni993      O1134   1.921       .  S
Ni993      O1135   1.915       .  S
Ni994      O1138   1.918       .  S
Ni994      O1140   1.922       .  S
C995       C1032   1.437       .  S
C996       C1030   1.438       .  S
C996       O1134   1.280       .  A
C997       C1016   1.437       .  S
C998       C1014   1.434       .  S
O999      Ni1007   1.921       .  S
O999       C1009   1.280       .  A
O1000     Ni1007   1.922       .  S
O1000      C1010   1.281       .  A
O1001     Ni1007   1.917       .  S
O1001      C1011   1.279       .  A
O1002     Ni1007   1.918       .  S
O1002      C1012   1.280       .  A
O1003     Ni1008   1.916       .  S
O1004     Ni1008   1.917       .  S
O1005     Ni1008   1.921       .  S
O1006     Ni1008   1.922       .  S
C1009      C1024   1.438       .  S
C1010      C1021   1.439       .  S
C1011      C1013   1.435       .  S
C1012      C1015   1.437       .  S
C1013      C1014   1.205       .  T
C1015      C1016   1.207       .  T
C1017      C1018   1.205       .  T
C1019      C1020   1.206       .  T
C1021      C1022   1.209       .  T
C1023      C1024   1.208       .  T
C1025      C1026   1.210       .  T
C1027      C1028   1.209   1_455  T
C1029      C1030   1.208       .  T
C1031      C1058   1.453       .  S
C1031      C1032   1.207       .  T
C1033      C1034   1.208       .  T
C1035      C1036   1.208   1_655  T
C1036      C1057   1.453       .  S
N1037      C1042   1.354       .  A
N1037      H1069   1.038       .  S
N1038      C1045   1.353       .  A
N1038      C1046   1.352       .  A
N1039      C1044   1.355       .  A
N1039      H1070   1.037       .  S
N1040      C1047   1.352       .  A
N1040      C1048   1.351       .  A
C1041      C1049   1.388       .  A
C1041      C1057   1.415   1_654  A
C1042      C1058   1.415       .  A
C1042      C1050   1.388       .  A
C1043      C1051   1.388       .  A
C1044      C1052   1.387       .  A
C1045      C1053   1.386       .  A
C1046      C1060   1.415       .  A
C1046      C1054   1.387       .  A
C1047      C1055   1.386       .  A
C1048      C1056   1.387       .  A
C1048      C1059   1.412   1_655  A
C1049      H1061   1.082       .  S
C1050      H1062   1.082       .  S
C1051      H1063   1.082       .  S
C1052      H1064   1.082       .  S
C1053      C1054   1.374       .  A
C1053      H1065   1.082       .  S
C1054      H1066   1.082       .  S
C1055      C1056   1.374       .  A
C1055      H1067   1.082       .  S
C1056      H1068   1.082       .  S
C1059      C1181   1.452       .  S
C1060      C1177   1.454       .  S
N1071      C1076   1.354       .  A
N1071      C1075   1.354       .  A
N1071      H1103   1.038       .  S
N1072      C1079   1.352       .  A
N1072      C1080   1.351       .  A
N1073      C1078   1.354       .  A
N1073      C1077   1.354       .  A
N1073      H1104   1.035       .  S
N1074      C1081   1.353       .  A
N1074      C1082   1.353       .  A
C1075      C1083   1.387       .  A
C1075      C1091   1.415   1_655  A
C1076      C1092   1.416       .  A
C1076      C1084   1.388       .  A
C1077      C1085   1.388       .  A
C1078      C1086   1.388       .  A
C1079      C1087   1.387       .  A
C1080      C1094   1.414       .  A
C1080      C1088   1.388       .  A
C1081      C1089   1.387       .  A
C1082      C1090   1.387       .  A
C1082      C1093   1.415   1_655  A
C1083      C1084   1.377       .  A
C1083      H1095   1.082       .  S
C1084      H1096   1.082       .  S
C1085      C1086   1.375       .  A
C1085      H1097   1.082       .  S
C1086      H1098   1.082       .  S
C1087      C1088   1.372       .  A
C1087      H1099   1.082       .  S
C1088      H1100   1.082       .  S
C1089      C1090   1.372       .  A
C1089      H1101   1.082       .  S
C1090      H1102   1.082       .  S
C1091      C1175   1.454       .  S
C1092      C1171   1.454       .  S
C1093      C1173   1.453       .  S
C1094      C1170   1.453       .  S
O1105     Ni1113   1.923       .  S
O1105      C1115   1.281       .  A
O1107      C1117   1.280   1_655  A
O1108     Ni1113   1.917       .  S
O1108      C1118   1.280   1_655  A
O1109     Ni1114   1.917       .  S
O1111     Ni1114   1.920       .  S
C1115      C1183   1.439       .  S
C1116      C1182   1.437       .  S
C1117      C1165   1.436       .  S
C1118      C1167   1.433       .  S
O1119     Ni1127   1.922       .  S
O1119      C1129   1.280   1_655  A
O1120     Ni1127   1.920       .  S
O1120      C1130   1.280   1_655  A
O1121     Ni1127   1.915       .  S
O1121      C1131   1.279   1_655  A
O1122     Ni1127   1.917       .  S
O1122      C1132   1.280   1_655  A
O1123     Ni1128   1.920       .  S
O1124     Ni1128   1.920       .  S
O1125     Ni1128   1.918       .  S
O1126     Ni1128   1.917       .  S
C1129      C1176   1.440       .  S
C1130      C1174   1.437       .  S
C1131      C1168   1.433       .  S
C1132      C1166   1.436       .  S
O1133     Ni1141   1.921       .  S
O1133      C1143   1.280       .  A
O1135      C1145   1.279       .  A
O1136     Ni1141   1.919       .  S
O1136      C1146   1.280       .  A
O1137     Ni1142   1.916   1_556  S
O1139     Ni1142   1.918   1_556  S
C1143      C1180   1.439       .  S
C1144      C1178   1.438   1_556  S
C1145      C1164   1.431       .  S
C1146      C1162   1.435       .  S
O1147     Ni1155   1.921       .  S
O1147      C1157   1.280       .  A
O1148     Ni1155   1.919       .  S
O1148      C1158   1.280       .  A
O1149     Ni1155   1.916       .  S
O1149      C1159   1.279       .  A
O1150     Ni1155   1.915       .  S
O1150      C1160   1.279       .  A
O1151     Ni1156   1.921       .  S
O1152     Ni1156   1.918       .  S
O1153     Ni1156   1.919       .  S
O1154     Ni1156   1.920       .  S
C1157      C1172   1.439       .  S
C1158      C1169   1.436       .  S
C1159      C1161   1.434       .  S
C1160      C1163   1.431       .  S
C1161      C1162   1.205       .  T
C1163      C1164   1.204       .  T
C1165      C1166   1.206       .  T
C1167      C1168   1.205       .  T
C1169      C1170   1.207       .  T
C1171      C1172   1.209       .  T
C1173      C1174   1.207       .  T
C1175      C1176   1.209       .  T
C1177      C1178   1.208       .  T
C1179      C1180   1.208       .  T
C1181      C1182   1.207       .  T
C1183      C1184   1.209   1_655  T
