geometry optimzed in LAMMPS
_audit_creation_date              2020-11-30 
_audit_creation_method            'lammps2cif' 
_symmetry_space_group_name_H-M    'P1' 
_symmetry_Int_Tables_number       1 
_symmetry_cell_setting            triclinic 
loop_ 
_symmetry_equiv_pos_as_xyz 
  x,y,z 
_cell_length_a                    24.54078492 
_cell_length_b                    24.075908486409276 
_cell_length_c                    24.01090932578126 
_cell_angle_alpha                 89.93905767185043 
_cell_angle_beta                  89.63090063141873 
_cell_angle_gamma                 90.11640326692125 
loop_ 
_atom_site_label 
_atom_site_type_symbol 
_atom_site_fract_x 
_atom_site_fract_y 
_atom_site_fract_z 
_atom_site_charge 
N1          N  0.60132644  0.43712502  0.06209142    -0.04600
N2          N  0.63946215  0.42610347  0.09877635    -0.56700
N3          N  0.55998537  0.39277385  0.43807451    -0.04300
N4          N  0.57045185  0.35591493  0.39893522    -0.58900
N5          N  0.59716372  0.43203580  0.43797586    -0.03900
N6          N  0.63379840  0.42318173  0.39881116    -0.56700
N7          N  0.56410066  0.39787244  0.06201863    -0.03600
N8          N  0.57586955  0.35910300  0.09870856    -0.59200
C9          C  0.62236161  0.37792359  0.12154363     0.97600
C10         C  0.61602921  0.37621672  0.37461382     0.97300
N11         N  0.39531343  0.43134333  0.44163205    -0.04800
N12         N  0.35904193  0.42262283  0.40253946    -0.57300
N13         N  0.43751754  0.39838004  0.06151863    -0.02900
N14         N  0.42780259  0.36229134  0.10149173    -0.58600
N15         N  0.39939906  0.43656638  0.06027555    -0.04800
N16         N  0.36271875  0.42755440  0.09937155    -0.57600
N17         N  0.43325556  0.39294318  0.44038641    -0.02600
N18         N  0.42380261  0.35697164  0.40039972    -0.58700
Mn19       Mn  0.50114422  0.39531771  0.99862725     1.18400
C20         C  0.37798977  0.37673289  0.37711328     0.99600
C21         C  0.38167119  0.38178944  0.12486176     1.00300
N22         N  0.59505201  0.55999626  0.43823217    -0.04900
N23         N  0.63026038  0.56939747  0.39787930    -0.61200
N24         N  0.56051030  0.60498198  0.05866988    -0.03700
N25         N  0.56890142  0.64233612  0.09768131    -0.61800
N26         N  0.59806988  0.56622869  0.06029735    -0.04400
N27         N  0.63296697  0.57603558  0.10035436    -0.61400
N28         N  0.55728286  0.59851243  0.43927259    -0.03300
N29         N  0.56576340  0.63529416  0.39964844    -0.62100
Mn30       Mn  0.59882808  0.49607425  0.50135277     1.10700
C31         C  0.61076004  0.61580278  0.37405783     1.00900
C32         C  0.61365825  0.62296973  0.12338383     1.00900
N33         N  0.39736145  0.56463610  0.05734249    -0.04400
N34         N  0.36161728  0.57280244  0.09750593    -0.59700
N35         N  0.43133455  0.59885105  0.44257004    -0.03700
N36         N  0.42074512  0.63667326  0.40462631    -0.56500
N37         N  0.39368301  0.56003368  0.44292051    -0.05000
N38         N  0.35633433  0.57036678  0.40525173    -0.59300
N39         N  0.43445491  0.60398098  0.05697605    -0.04000
N40         N  0.42497437  0.64014847  0.09692857    -0.56500
Mn41       Mn  0.39719497  0.49917523  0.99546614     1.20200
Mn42       Mn  0.49565840  0.60039255  0.50415747     1.10100
Cl43       Cl  0.49983894  0.50028459  0.99654012    -0.84500
C44         C  0.37996314  0.61946025  0.12187920     0.97900
C45         C  0.37445299  0.61771979  0.38160780     0.97700
N46         N  0.40664164  0.93406709  0.07806451    -0.04600
N47         N  0.36629856  0.90252052  0.09663197    -0.56700
N48         N  0.44767432  0.06010954  0.11366077    -0.04300
N49         N  0.43621461  0.09318229  0.15619920    -0.58900
N50         N  0.40655362  0.05946518  0.07854841    -0.03900
N51         N  0.36657100  0.09145647  0.09674281    -0.56700
N52         N  0.44776856  0.93330628  0.11315352    -0.03600
N53         N  0.43594320  0.90066961  0.15602069    -0.59200
C54         C  0.38515639  0.88154383  0.14498212     0.97600
C55         C  0.38563404  0.11261227  0.14490887     0.97300
N56         N  0.61235287  0.06074444  0.05646786    -0.04800
N57         N  0.65334628  0.09535294  0.06476390    -0.57300
N58         N  0.57995809  0.93418053  0.09937606    -0.02900
N59         N  0.59918636  0.90064636  0.13835649    -0.58600
N60         N  0.61249413  0.93390615  0.05540537    -0.04800
N61         N  0.65359396  0.89940930  0.06330506    -0.57600
N62         N  0.57979558  0.05966370  0.10037764    -0.02600
N63         N  0.59889686  0.09273683  0.13978954    -0.58700
Mn64       Mn  0.51385599  0.99680218  0.10748068     1.18400
C65         C  0.64457735  0.11484238  0.11675408     0.99600
C66         C  0.64491384  0.87906270  0.11508736     1.00300
N67         N  0.39067996  0.06233094  0.44682521    -0.04900
N68         N  0.34887891  0.09585262  0.43889349    -0.61200
N69         N  0.42270626  0.93696059  0.40149458    -0.03700
N70         N  0.40291722  0.90445339  0.36194478    -0.61800
N71         N  0.39047886  0.93581283  0.44566817    -0.04400
N72         N  0.34906845  0.90173256  0.43739606    -0.61400
N73         N  0.42295064  0.06217710  0.40264934    -0.03300
N74         N  0.40268853  0.09479015  0.36341773    -0.62100
Mn75       Mn  0.40030023  0.99711865  0.01196831     1.10700
C76         C  0.35673964  0.11573543  0.38687714     1.00900
C77         C  0.35719528  0.88259101  0.38518485     1.00900
N78         N  0.59621268  0.93603749  0.42263216    -0.04400
N79         N  0.63617915  0.90431832  0.40377708    -0.59700
N80         N  0.55570861  0.06252333  0.38842064    -0.03700
N81         N  0.56778805  0.09482858  0.34536948    -0.56500
N82         N  0.59700452  0.06135260  0.42331968    -0.05000
N83         N  0.63768104  0.09232388  0.40441522    -0.59300
N84         N  0.55501926  0.93591590  0.38757534    -0.04000
N85         N  0.56640699  0.90349818  0.34449827    -0.56500
Mn86       Mn  0.60647689  0.99808823  0.98938903     1.20200
Mn87       Mn  0.48904930  0.99947493  0.39428635     1.10100
Cl88       Cl  0.50334727  0.99772245  0.00069109    -0.84500
C89         C  0.61701873  0.88387633  0.35529405     0.97900
C90         C  0.61885863  0.11337318  0.35605687     0.97700
N91         N  0.93726524  0.60846686  0.05534693    -0.04600
N92         N  0.90240838  0.64953953  0.06319452    -0.56700
N93         N  0.06148952  0.57617060  0.09924449    -0.04300
N94         N  0.09553124  0.59479507  0.13752493    -0.58900
N95         N  0.06190311  0.60942308  0.05556605    -0.03900
N96         N  0.09697247  0.65043704  0.06282848    -0.56700
N97         N  0.93808626  0.57557681  0.09931036    -0.03600
N98         N  0.90449709  0.59451557  0.13825654    -0.59200
C99         C  0.88237094  0.64043262  0.11493589     0.97600
C100        C  0.11749841  0.64090670  0.11397500     0.97300
N101        N  0.06211006  0.39955890  0.07887378    -0.04800
N102        N  0.09339097  0.35897971  0.09741765    -0.57300
N103        N  0.93815333  0.44150166  0.11315210    -0.02900
N104        N  0.90577199  0.43018690  0.15596665    -0.58600
N105        N  0.93919926  0.39909444  0.07843467    -0.04800
N106        N  0.90821198  0.35814825  0.09738875    -0.57600
N107        N  0.06246137  0.44185335  0.11371706    -0.02600
N108        N  0.09458105  0.43067033  0.15640338    -0.58700
Mn109      Mn  0.00007459  0.50895699  0.10719157     1.18400
C110        C  0.11379132  0.37900189  0.14555214     0.99600
C111        C  0.88723012  0.37826034  0.14546750     1.00300
N112        N  0.06566640  0.59539555  0.42199747    -0.04900
N113        N  0.09602728  0.63655646  0.40249017    -0.61200
N114        N  0.94228580  0.55146687  0.38733352    -0.03700
N115        N  0.90924163  0.56133242  0.34504665    -0.61800
N116        N  0.94242810  0.59428425  0.42154277    -0.04400
N117        N  0.90990562  0.63386393  0.40298642    -0.61400
N118        N  0.06681959  0.55271799  0.38757313    -0.03300
N119        N  0.09867191  0.56427779  0.34430538    -0.62100
Mn120      Mn  0.00018780  0.60319041  0.98912108     1.10700
C121        C  0.11676231  0.61656658  0.35429530     1.00900
C122        C  0.88906905  0.61272480  0.35549177     1.00900
N123        N  0.94296166  0.38505837  0.44834239    -0.04400
N124        N  0.90875346  0.34316976  0.44177652    -0.59700
N125        N  0.06666400  0.41799153  0.40381114    -0.03700
N126        N  0.09857928  0.39690610  0.36451038    -0.56500
N127        N  0.06730104  0.38597119  0.44845038    -0.05000
N128        N  0.10044018  0.34345426  0.44068346    -0.59300
N129        N  0.94350921  0.41706844  0.40375129    -0.04000
N130        N  0.91037797  0.39655907  0.36552134    -0.56500
Mn131      Mn  0.00135961  0.39301491  0.01210115     1.20200
Mn132      Mn  0.00489678  0.48471766  0.39476840     1.10100
Cl133      Cl  0.00098239  0.49809178  0.00052166    -0.84500
C134        C  0.88876419  0.35068938  0.39008929     0.97900
C135        C  0.11956116  0.35067953  0.38832287     0.97700
C136        C  0.24726205  0.24371543  0.19289421     0.47000
H137        H  0.24848072  0.24507194  0.14658452    -0.02100
C138        C  0.24627247  0.24229430  0.30108532     0.47000
H139        H  0.24643470  0.24215916  0.34686724    -0.02100
C140        C  0.28602680  0.28515191  0.21968816    -0.15800
C141        C  0.19175603  0.25954253  0.21799582    -0.15500
C142        C  0.26560635  0.18796292  0.21746290    -0.15900
C143        C  0.28547651  0.28432081  0.27609845    -0.15900
C144        C  0.19096959  0.26001383  0.27559707    -0.15400
C145        C  0.26620427  0.18695074  0.27499546    -0.15800
C146        C  0.75681081  0.24173438  0.19713364     0.47000
H147        H  0.75807307  0.24105786  0.15096876    -0.02100
C148        C  0.75606713  0.24682624  0.30526134     0.47000
H149        H  0.75358955  0.24865835  0.35129870    -0.02100
C150        C  0.71727696  0.28434922  0.22073649    -0.15800
C151        C  0.73754958  0.18715613  0.22498830    -0.15500
C152        C  0.81177971  0.25949756  0.22187490    -0.15900
C153        C  0.71640180  0.28656213  0.27725940    -0.15900
C154        C  0.73833746  0.18982058  0.28244621    -0.15400
C155        C  0.81174693  0.26320648  0.27928488    -0.15800
C156        C  0.24620579  0.75062009  0.19550260     0.47000
H157        H  0.24815436  0.74940640  0.14937896    -0.02100
C158        C  0.24564568  0.75505531  0.30362279     0.47000
H159        H  0.24450977  0.75529771  0.34977183    -0.02100
C160        C  0.28528616  0.71019800  0.22309887    -0.15800
C161        C  0.26466993  0.80715100  0.21856670    -0.15500
C162        C  0.19057654  0.73453124  0.22153973    -0.15900
C163        C  0.28456973  0.71214942  0.27958341    -0.15900
C164        C  0.26547159  0.80963931  0.27600110    -0.15400
C165        C  0.19049691  0.73766948  0.27893469    -0.15800
C166        C  0.75336961  0.74993410  0.19964022     0.47000
H167        H  0.75436053  0.75037133  0.15372348    -0.02100
C168        C  0.75044198  0.74825136  0.30789172     0.47000
H169        H  0.74830298  0.74676499  0.35416313    -0.02100
C170        C  0.71126560  0.71037846  0.22378935    -0.15800
C171        C  0.80725501  0.72935571  0.22629323    -0.15500
C172        C  0.73582641  0.80620524  0.22557510    -0.15900
C173        C  0.70983978  0.70932163  0.28018796    -0.15900
C174        C  0.80545432  0.72942594  0.28378755    -0.15400
C175        C  0.73551965  0.80510936  0.28318492    -0.15800
C176        C  0.15784375  0.67756994  0.14070497    -0.14900
C177        C  0.14858783  0.70133516  0.19070959    -0.30100
H178        H  0.19512307  0.68520691  0.11763167     0.14100
H179        H  0.10977773  0.69325485  0.21126416     0.14700
C180        C  0.15231366  0.70580945  0.31575328    -0.14900
C181        C  0.14958373  0.64972262  0.31407515    -0.30100
H182        H  0.13167990  0.72821113  0.34890423     0.14100
H183        H  0.17172228  0.62743853  0.28181778     0.14700
C184        C  0.14982146  0.29382215  0.30770678    -0.14900
C185        C  0.15696682  0.31119346  0.36064318    -0.30100
H186        H  0.11370859  0.30805990  0.28609873     0.14100
H187        H  0.19017675  0.29615473  0.38576903     0.14700
C188        C  0.14800135  0.34658679  0.18463208    -0.14900
C189        C  0.15304326  0.29075421  0.18179730    -0.30100
H190        H  0.16911002  0.36924849  0.21721360     0.14100
H191        H  0.13359327  0.26816393  0.14815330     0.14700
C192        C  0.85319386  0.34596731  0.18504899    -0.14900
C193        C  0.85048967  0.28997088  0.18463701    -0.30100
H194        H  0.83045069  0.36896350  0.21638180     0.14100
H195        H  0.87180113  0.26663992  0.15257174     0.14700
C196        C  0.85378577  0.29698837  0.30983254    -0.14900
C197        C  0.84976469  0.31180002  0.36382937    -0.30100
H198        H  0.88858754  0.31266224  0.28646679     0.14100
H199        H  0.81855781  0.29428008  0.39061584     0.14700
C200        C  0.84401965  0.69900513  0.32105535    -0.14900
C201        C  0.85356298  0.64386565  0.31636332    -0.30100
H202        H  0.86003414  0.72141698  0.35659016     0.14100
H203        H  0.83534393  0.62086663  0.28232121     0.14700
C204        C  0.84240332  0.67740665  0.14245031    -0.14900
C205        C  0.84968004  0.69711666  0.19449714    -0.32100
H206        H  0.80700114  0.68843115  0.11832867     0.14100
H207        H  0.88708104  0.68618584  0.21573810     0.14700
C208        C  0.70660576  0.15219145  0.32018137    -0.14900
C209        C  0.65193573  0.14668267  0.31616747    -0.30100
H210        H  0.72767896  0.13417461  0.35540935     0.14100
H211        H  0.63074488  0.16673441  0.28211290     0.14700
C212        C  0.68130516  0.15474049  0.14437599    -0.14900
C213        C  0.70415796  0.14472733  0.19441311    -0.30100
H214        H  0.68975500  0.19262691  0.12172591     0.14100
H215        H  0.69511594  0.10559712  0.21502232     0.14700
C216        C  0.29794373  0.15011868  0.18085484    -0.14900
C217        C  0.35282999  0.14680632  0.18396211    -0.30100
H218        H  0.27675737  0.12965756  0.14705760     0.14100
H219        H  0.37411443  0.16883544  0.21672682     0.14700
C220        C  0.31801720  0.15373564  0.35925824    -0.14900
C221        C  0.30063571  0.14589562  0.30655780    -0.30100
H222        H  0.30315017  0.18766480  0.38437561     0.14100
H223        H  0.31492011  0.10920952  0.28477896     0.14700
C224        C  0.68200358  0.83926561  0.14264828    -0.14900
C225        C  0.70320532  0.84850798  0.19367339    -0.30100
H226        H  0.69181703  0.80220153  0.11932662     0.14100
H227        H  0.69311696  0.88730283  0.21428285     0.14700
C228        C  0.70414394  0.84431229  0.31936833    -0.14900
C229        C  0.64941735  0.84959761  0.31577568    -0.30100
H230        H  0.72559811  0.86366300  0.35366186     0.14100
H231        H  0.62778545  0.82856826  0.28255823     0.14700
C232        C  0.31986670  0.84308723  0.35773837    -0.14900
C233        C  0.29920733  0.85190128  0.30651766    -0.30100
H234        H  0.30893982  0.80664129  0.38166312     0.14100
H235        H  0.31023678  0.89005380  0.28502428     0.14700
C236        C  0.29714093  0.84416855  0.18096702    -0.14900
C237        C  0.35193439  0.84834473  0.18474131    -0.30100
H238        H  0.27630061  0.86297010  0.14601630     0.14100
H239        H  0.37290299  0.82770289  0.21858081     0.14700
C240        C  0.34381064  0.64886169  0.34325432    -0.11800
C241        C  0.31703548  0.67742717  0.31369509    -0.13300
C242        C  0.32075862  0.67547483  0.19180579    -0.11800
C243        C  0.34968212  0.64861117  0.16242514    -0.13300
C244        C  0.67240759  0.67621282  0.31072239    -0.11800
C245        C  0.64194728  0.64788631  0.33684277    -0.13300
C246        C  0.64399339  0.65418324  0.16180273    -0.11800
C247        C  0.67430952  0.68003032  0.19024502    -0.13300
C248        C  0.67900822  0.31976105  0.30816012    -0.11800
C249        C  0.64811487  0.34601479  0.33612504    -0.13300
C250        C  0.65472078  0.34572332  0.15786602    -0.11800
C251        C  0.68322272  0.31759670  0.18637658    -0.13300
C252        C  0.34736081  0.34659236  0.33807398    -0.11800
C253        C  0.31923653  0.31874385  0.30918601    -0.13300
C254        C  0.34971308  0.35018576  0.16189395    -0.11800
C255        C  0.32049910  0.32081328  0.18838052    -0.13300
N256        N  0.59819892  0.43168777  0.56450352    -0.04600
N257        N  0.63517465  0.42237128  0.60273987    -0.56700
N258        N  0.56509391  0.39730332  0.93586275    -0.04300
N259        N  0.57631431  0.35969828  0.89785431    -0.58900
N260        N  0.60249672  0.43638186  0.93608101    -0.03900
N261        N  0.64014649  0.42660792  0.89822520    -0.56700
N262        N  0.56098400  0.39240928  0.56489799    -0.03600
N263        N  0.57165418  0.35521239  0.60349686    -0.59200
C264        C  0.61744452  0.37516744  0.62688894     0.97600
C265        C  0.62258150  0.37929296  0.87459475     0.97300
N266        N  0.40001716  0.43311168  0.93419044    -0.04800
N267        N  0.36209353  0.42018163  0.89796161    -0.57300
N268        N  0.43458220  0.39151538  0.56674578    -0.02900
N269        N  0.42527749  0.35370274  0.60521956    -0.58600
N270        N  0.39672151  0.42999432  0.56793762    -0.04800
N271        N  0.36060512  0.41940981  0.60722109    -0.57600
N272        N  0.43807446  0.39483367  0.93530985    -0.02600
N273        N  0.42698381  0.35479400  0.89982837    -0.58700
Mn274      Mn  0.49713075  0.39034960  0.50248570     1.18400
C275        C  0.38009649  0.37188537  0.87660637     0.99600
C276        C  0.37967431  0.37239755  0.63026951     1.00300
N277        N  0.60117081  0.56431587  0.93396500    -0.04900
N278        N  0.63825416  0.57288885  0.89516455    -0.61200
N279        N  0.56064006  0.59924415  0.56551065    -0.03700
N280        N  0.57357368  0.63856902  0.60117477    -0.61800
N281        N  0.59839627  0.56064862  0.56431611    -0.04400
N282        N  0.63788541  0.57258561  0.59912055    -0.61400
N283        N  0.56317358  0.60258012  0.93206825    -0.03300
N284        N  0.57347350  0.63840025  0.89191589    -0.62100
Mn285      Mn  0.60244477  0.50122111  0.99829786     1.10700
C286        C  0.61979421  0.61853059  0.86913469     1.00900
C287        C  0.62126823  0.62066284  0.62205636     1.00900
N288        N  0.39530832  0.55928917  0.56870489    -0.04400
N289        N  0.35654269  0.57137757  0.60473090    -0.59700
N290        N  0.43627390  0.60150000  0.93019764    -0.03700
N291        N  0.42542346  0.63878574  0.89173612    -0.56500
N292        N  0.39897499  0.56227809  0.93071409    -0.05000
N293        N  0.36179590  0.57182870  0.89266675    -0.59300
N294        N  0.43307587  0.59808068  0.56833583    -0.04000
N295        N  0.42098196  0.63758250  0.60406724    -0.56500
Mn296      Mn  0.39349300  0.49495645  0.50544524     1.20200
Mn297      Mn  0.49862008  0.60539791  0.99427720     1.10100
Cl298      Cl  0.49624005  0.49544988  0.50353966    -0.84500
C299        C  0.37385045  0.61961775  0.62671742     0.97900
C300        C  0.37952595  0.61902305  0.86841003     0.97700
N301        N  0.40249749  0.93556107  0.57916926    -0.04600
N302        N  0.36126048  0.90603267  0.59906507    -0.56700
N303        N  0.44367136  0.06070822  0.61503226    -0.04300
N304        N  0.43101311  0.09118942  0.65916964    -0.58900
N305        N  0.40245768  0.06016910  0.57997438    -0.03900
N306        N  0.36131495  0.08961631  0.59988068    -0.56700
N307        N  0.44377256  0.93469143  0.61416369    -0.03600
N308        N  0.43110976  0.90392954  0.65815788    -0.59200
C309        C  0.37970828  0.88613800  0.64803964     0.97600
C310        C  0.37968887  0.10914759  0.64900689     0.97300
N311        N  0.60891556  0.06116019  0.55620730    -0.04800
N312        N  0.65033826  0.09529010  0.56407557    -0.57300
N313        N  0.57672640  0.93511227  0.60011724    -0.02900
N314        N  0.59683270  0.90237901  0.63938097    -0.58600
N315        N  0.60896800  0.93470270  0.55592170    -0.04800
N316        N  0.65066208  0.90101531  0.56394101    -0.57600
N317        N  0.57661914  0.06051258  0.60035293    -0.02600
N318        N  0.59644942  0.09345575  0.63953343    -0.58700
Mn319      Mn  0.51032278  0.99776394  0.60808242     1.18400
C320        C  0.64221521  0.11501919  0.61602890     0.99600
C321        C  0.64276074  0.88122193  0.61600498     1.00300
N322        N  0.39348489  0.06071928  0.94603760    -0.04900
N323        N  0.35134806  0.09377906  0.93795531    -0.61200
N324        N  0.42694090  0.93543786  0.90134144    -0.03700
N325        N  0.40771003  0.90224145  0.86209523    -0.61800
N326        N  0.39455914  0.93428032  0.94538770    -0.04400
N327        N  0.35352723  0.89968399  0.93733462    -0.61400
N328        N  0.42592672  0.06094096  0.90203375    -0.03300
N329        N  0.40559170  0.09348949  0.86278421    -0.62100
Mn330      Mn  0.39665699  0.99842634  0.51269568     1.10700
C331        C  0.35929033  0.11385042  0.88602946     1.00900
C332        C  0.36218325  0.88002446  0.88543128     1.00900
N333        N  0.60032998  0.93637035  0.92184381    -0.04400
N334        N  0.64064491  0.90557954  0.90219310    -0.59700
N335        N  0.55854533  0.06264005  0.88868021    -0.03700
N336        N  0.57008016  0.09543142  0.84587399    -0.56500
N337        N  0.60001820  0.06156652  0.92340388    -0.05000
N338        N  0.64032307  0.09303081  0.90452134    -0.59300
N339        N  0.55899907  0.93624819  0.88695764    -0.04000
N340        N  0.57061406  0.90484672  0.84324443    -0.56500
Mn341      Mn  0.60274868  0.99826256  0.48962852     1.20200
Mn342      Mn  0.49257211  0.99889423  0.89400929     1.10100
Cl343      Cl  0.49968090  0.99847407  0.50120126    -0.84500
C344        C  0.62147316  0.88575705  0.85343540     0.97900
C345        C  0.62103619  0.11428319  0.85644635     0.97700
N346        N  0.94078593  0.60941415  0.55374822    -0.04600
N347        N  0.90712645  0.65162782  0.56053985    -0.56700
N348        N  0.06361340  0.57802193  0.59989084    -0.04300
N349        N  0.09461880  0.59940693  0.63946694    -0.58900
N350        N  0.06473251  0.61020586  0.55533443    -0.03900
N351        N  0.09735988  0.65312211  0.56346146    -0.56700
N352        N  0.94089870  0.57753724  0.59846301    -0.03600
N353        N  0.90802053  0.59851300  0.63699273    -0.59200
C354        C  0.88707243  0.64443018  0.61247175     0.97600
C355        C  0.11554412  0.64601594  0.61594273     0.97300
N356        N  0.06474731  0.40033356  0.58189475    -0.04800
N357        N  0.09404258  0.35900430  0.60212778    -0.57300
N358        N  0.94034993  0.44287460  0.61447230    -0.02900
N359        N  0.90721552  0.43179981  0.65681133    -0.58600
N360        N  0.94194961  0.40018918  0.58012839    -0.04800
N361        N  0.91041643  0.35953217  0.59858129    -0.57600
N362        N  0.06437482  0.44268683  0.61676779    -0.02600
N363        N  0.09393614  0.43053570  0.66119009    -0.58700
Mn364      Mn  0.00237209  0.51040122  0.60818857     1.18400
C365        C  0.11247070  0.37835573  0.65133961     0.99600
C366        C  0.88862555  0.37984636  0.64612288     1.00300
N367        N  0.06251576  0.59750163  0.92309673    -0.04900
N368        N  0.09287312  0.63902144  0.90444637    -0.61200
N369        N  0.94026525  0.55422787  0.88655356    -0.03700
N370        N  0.90976811  0.56575975  0.84271750    -0.61800
N371        N  0.93975473  0.59648390  0.92153355    -0.04400
N372        N  0.90947983  0.63735899  0.90176518    -0.61400
N373        N  0.06428772  0.55523479  0.88821828    -0.03300
N374        N  0.09642003  0.56746431  0.84539181    -0.62100
Mn375      Mn  0.00354253  0.60238700  0.48822766     1.10700
C376        C  0.11416949  0.61967018  0.85624809     1.00900
C377        C  0.89058936  0.61756694  0.85283993     1.00900
N378        N  0.94021766  0.38670503  0.94525964    -0.04400
N379        N  0.90629702  0.34486256  0.93729341    -0.59700
N380        N  0.06452425  0.42030670  0.90260875    -0.03700
N381        N  0.09819783  0.40070376  0.86407811    -0.56500
N382        N  0.06433417  0.38733327  0.94652473    -0.05000
N383        N  0.09851376  0.34564279  0.93916952    -0.59300
N384        N  0.94141354  0.41946935  0.90118602    -0.04000
N385        N  0.90903934  0.39960446  0.86198448    -0.56500
Mn386      Mn  0.00446118  0.39291191  0.51454162     1.20200
Mn387      Mn  0.00268027  0.48714073  0.89383021     1.10100
Cl388      Cl  0.00404831  0.49762111  0.50145570    -0.84500
C389        C  0.88731544  0.35325735  0.88534864     0.97900
C390        C  0.11929319  0.35444982  0.88777592     0.97700
C391        C  0.24309310  0.23774041  0.69875897     0.47000
H392        H  0.24475730  0.23927182  0.65246849    -0.02100
C393        C  0.24113965  0.23588776  0.80697892     0.47000
H394        H  0.24002507  0.23492505  0.85307702    -0.02100
C395        C  0.28370427  0.27697099  0.72613935    -0.15800
C396        C  0.18826339  0.25638086  0.72329009    -0.15500
C397        C  0.25848789  0.18095146  0.72315237    -0.15900
C398        C  0.28269722  0.27603130  0.78265257    -0.15900
C399        C  0.18702721  0.25618795  0.78072984    -0.15400
C400        C  0.25888387  0.17988595  0.78068171    -0.15800
C401        C  0.75562555  0.24182278  0.69571926     0.47000
H402        H  0.75512970  0.24252933  0.64956611    -0.02100
C403        C  0.75875486  0.24408864  0.80387099     0.47000
H404        H  0.75804391  0.24423847  0.85000204    -0.02100
C405        C  0.71667082  0.28334233  0.72204776    -0.15800
C406        C  0.73764018  0.18638611  0.72288274    -0.15500
C407        C  0.81135699  0.25965764  0.71895917    -0.15900
C408        C  0.71831228  0.28441700  0.77846233    -0.15900
C409        C  0.74040165  0.18774209  0.78029424    -0.15400
C410        C  0.81319833  0.26167955  0.77639078    -0.15800
C411        C  0.23924515  0.75980343  0.69776721     0.47000
H412        H  0.23915157  0.76150747  0.65165457    -0.02100
C413        C  0.24365277  0.75825141  0.80586900     0.47000
H414        H  0.24497053  0.75633416  0.85202999    -0.02100
C415        C  0.27957682  0.71817096  0.72110871    -0.15800
C416        C  0.25844973  0.81508924  0.72312636    -0.15500
C417        C  0.18505448  0.74135470  0.72525987    -0.15900
C418        C  0.28175562  0.71706033  0.77755435    -0.15900
C419        C  0.26172281  0.81434148  0.78044310    -0.15400
C420        C  0.18739326  0.74195671  0.78277589    -0.15800
C421        C  0.76029361  0.75661187  0.69477400     0.47000
H422        H  0.76160578  0.75899973  0.64879635    -0.02100
C423        C  0.75679393  0.75199110  0.80291335     0.47000
H424        H  0.75436366  0.74922968  0.84911766    -0.02100
C425        C  0.72003791  0.71414708  0.71735508    -0.15800
C426        C  0.81487778  0.73774569  0.72147374    -0.15500
C427        C  0.74010718  0.81126111  0.72226821    -0.15900
C428        C  0.71826606  0.71172804  0.77381848    -0.15900
C429        C  0.81275570  0.73665807  0.77897078    -0.15400
C430        C  0.73977867  0.80868315  0.77971069    -0.15800
C431        C  0.15324953  0.68516556  0.64337255    -0.14900
C432        C  0.14393410  0.70656744  0.69458286    -0.30100
H433        H  0.18897638  0.69646668  0.61948152     0.14100
H434        H  0.10648846  0.69509160  0.71596403     0.14700
C435        C  0.15025482  0.70938039  0.81991330    -0.14900
C436        C  0.14698109  0.65345447  0.81670184    -0.30100
H437        H  0.13047180  0.73109593  0.85407464     0.14100
H438        H  0.16836727  0.63183957  0.78345222     0.14700
C439        C  0.14608531  0.28976679  0.81267550    -0.14900
C440        C  0.15807994  0.31629807  0.86049783    -0.30100
H441        H  0.10645074  0.29679051  0.79407376     0.14100
H442        H  0.19688407  0.31037020  0.88082584     0.14700
C443        C  0.14374192  0.34462663  0.69217298    -0.14900
C444        C  0.15088365  0.28912016  0.68669844    -0.30100
H445        H  0.16173667  0.36616462  0.72732411     0.14100
H446        H  0.13507254  0.26830156  0.65006318     0.14700
C447        C  0.85446541  0.34710625  0.68531657    -0.14900
C448        C  0.84881831  0.29139466  0.68138555    -0.30100
H449        H  0.83423268  0.36924224  0.71891201     0.14100
H450        H  0.86709096  0.26940408  0.64658281     0.14700
C451        C  0.85554653  0.29498922  0.80678002    -0.14900
C452        C  0.84783953  0.31578045  0.85838326    -0.30100
H453        H  0.89307610  0.30564620  0.78492808     0.14100
H454        H  0.81234684  0.30493109  0.88303907     0.14700
C455        C  0.85126880  0.70575063  0.81582328    -0.14900
C456        C  0.85784959  0.65010271  0.81234408    -0.30100
H457        H  0.86860170  0.72808261  0.85073698     0.14100
H458        H  0.83867576  0.62756136  0.77855919     0.14700
C459        C  0.84843814  0.68336810  0.63896745    -0.14900
C460        C  0.85693213  0.70489206  0.69000957    -0.32100
H461        H  0.81271124  0.69402196  0.61508789     0.14100
H462        H  0.89448353  0.69413853  0.71115686     0.14700
C463        C  0.70873997  0.15020094  0.81806384    -0.14900
C464        C  0.65376299  0.14759941  0.81638838    -0.30100
H465        H  0.73044729  0.12980257  0.85149857     0.14100
H466        H  0.63216211  0.16962384  0.78389245     0.14700
C467        C  0.67974027  0.15458385  0.64304069    -0.14900
C468        C  0.70291954  0.14460131  0.69287245    -0.30100
H469        H  0.68898693  0.19198171  0.61972577     0.14100
H470        H  0.69335977  0.10566106  0.71380876     0.14700
C471        C  0.29099894  0.14288737  0.68686270    -0.14900
C472        C  0.34597383  0.14064438  0.68964597    -0.30100
H473        H  0.27008528  0.12254095  0.65281939     0.14100
H474        H  0.36689410  0.16255243  0.72272864     0.14700
C475        C  0.32106153  0.15239120  0.85853802    -0.14900
C476        C  0.29351672  0.13894334  0.81186614    -0.30100
H477        H  0.31562515  0.19241364  0.87820311     0.14100
H478        H  0.30010405  0.09823549  0.79363581     0.14700
C479        C  0.68044596  0.84173816  0.64325315    -0.14900
C480        C  0.70632771  0.85326457  0.69142002    -0.30100
H481        H  0.68699913  0.80261487  0.62209928     0.14100
H482        H  0.69896014  0.89322901  0.71098828     0.14700
C483        C  0.70844451  0.84653928  0.81720062    -0.14900
C484        C  0.65397955  0.85296320  0.81289429    -0.30100
H485        H  0.72950561  0.86348572  0.85299522     0.14100
H486        H  0.63253345  0.83385251  0.77842503     0.14700
C487        C  0.32481989  0.84092677  0.85759509    -0.14900
C488        C  0.29656560  0.85490779  0.81165248    -0.30100
H489        H  0.32029807  0.80026256  0.87648579     0.14100
H490        H  0.30229538  0.89621808  0.79416030     0.14700
C491        C  0.29098373  0.85297652  0.68648432    -0.14900
C492        C  0.34596946  0.85486809  0.68887960    -0.30100
H493        H  0.27007898  0.87320616  0.65237312     0.14100
H494        H  0.36695113  0.83286047  0.72184336     0.14700
C495        C  0.34653378  0.65130269  0.83296614    -0.11800
C496        C  0.31685815  0.68099769  0.80757820    -0.13300
C497        C  0.31204602  0.68337079  0.68688575    -0.11800
C498        C  0.34056231  0.65346805  0.66032965    -0.13300
C499        C  0.68192946  0.67664618  0.80369898    -0.11800
C500        C  0.65180689  0.64877965  0.83085542    -0.13300
C501        C  0.65536691  0.65377893  0.65576452    -0.11800
C502        C  0.68552799  0.68168744  0.68268424    -0.13300
C503        C  0.68430345  0.31909885  0.81111549    -0.11800
C504        C  0.65514430  0.34771747  0.83827938    -0.13300
C505        C  0.64989376  0.34392189  0.66358205    -0.11800
C506        C  0.68027706  0.31641058  0.69039867    -0.13300
C507        C  0.34759774  0.33764808  0.84252266    -0.11800
C508        C  0.31793247  0.30892651  0.81598223    -0.13300
C509        C  0.34878584  0.34003856  0.66769733    -0.11800
C510        C  0.31965670  0.31121012  0.69492207    -0.13300
loop_ 
_geom_bond_atom_site_label_1 
_geom_bond_atom_site_label_2 
_geom_bond_distance 
_geom_bond_site_symmetry_2 
_ccdc_geom_bond_type 
N1            N2   1.317       .  A
N1            N7   1.313       .  A
N1         Mn285   2.173   1_554  S
N2            C9   1.347       .  A
N3            N5   1.312       .  A
N3            N4   1.318       .  A
N3         Mn274   2.178       .  S
N4           C10   1.349       .  A
N5            N6   1.315       .  A
N5          Mn30   2.168       .  S
N6           C10   1.345       .  A
N7            N8   1.317       .  A
N7          Mn19   2.177   1_554  S
N8            C9   1.347       .  A
C9          C250   1.415       .  S
C10         C249   1.413       .  S
N11          N17   1.314       .  A
N11          N12   1.314       .  A
N11        Mn296   2.168       .  S
N12          C20   1.345       .  A
N13          N14   1.314       .  A
N13          N15   1.313       .  A
N13         Mn19   2.167   1_554  S
N14          C21   1.346       .  A
N15          N16   1.314       .  A
N15         Mn41   2.166   1_554  S
N16          C21   1.345       .  A
N17          N18   1.315       .  A
N17        Mn274   2.171       .  S
N18          C20   1.346       .  A
Mn19        N258   2.169       .  S
Mn19        N272   2.177       .  S
Mn19        Cl43   2.528       .  S
C20         C252   1.407       .  S
C21         C254   1.404       .  S
N22          N23   1.313       .  A
N22          N28   1.313       .  A
N22         Mn30   2.161       .  S
N23          C31   1.345       .  A
N24          N26   1.314       .  A
N24          N25   1.316       .  A
N24        Mn297   2.174   1_554  S
N25          C32   1.347       .  A
N26          N27   1.313       .  A
N26        Mn285   2.164   1_554  S
N27          C32   1.344       .  A
N28          N29   1.314       .  A
N28         Mn42   2.165       .  S
N29          C31   1.346       .  A
Mn30        N256   2.167       .  S
Mn30        N281   2.170       .  S
Mn30       Cl298   2.518       .  S
C31         C245   1.403       .  S
C32         C246   1.406       .  S
N33          N34   1.315       .  A
N33          N39   1.312       .  A
N33         Mn41   2.167   1_554  S
N34          C44   1.345       .  A
N35          N36   1.315       .  A
N35          N37   1.313       .  A
N35         Mn42   2.170       .  S
N36          C45   1.346       .  A
N37          N38   1.316       .  A
N37        Mn296   2.169       .  S
N38          C45   1.347       .  A
N39          N40   1.316       .  A
N39        Mn297   2.172   1_554  S
N40          C44   1.348       .  A
Mn41        N266   2.169       .  S
Mn41        N292   2.173       .  S
Mn41        Cl43   2.519       .  S
Mn42        N279   2.178       .  S
Mn42        N294   2.169       .  S
Mn42       Cl298   2.527       .  S
Cl43       Mn285   2.519       .  S
Cl43       Mn297   2.531       .  S
C44         C243   1.410       .  S
C45         C240   1.409       .  S
N46          N47   1.321       .  A
N46          N52   1.319       .  A
N46         Mn75   2.201       .  S
N47          C54   1.350       .  A
N48          N50   1.319       .  A
N48          N49   1.325       .  A
N48         Mn64   2.234   1_545  S
N49          C55   1.356       .  A
N50          N51   1.321       .  A
N50         Mn75   2.200   1_545  S
N51          C55   1.350       .  A
N52          N53   1.325       .  A
N52         Mn64   2.230       .  S
N53          C54   1.356       .  A
C54         C237   1.483       .  S
C55         C217   1.483       .  S
N56          N62   1.319       .  A
N56          N57   1.321       .  A
N56         Mn86   2.213   1_544  S
N57          C65   1.350       .  A
N58          N59   1.325       .  A
N58          N60   1.320       .  A
N58         Mn64   2.225       .  S
N59          C66   1.355       .  A
N60          N61   1.322       .  A
N60         Mn86   2.218   1_554  S
N61          C66   1.351       .  A
N62          N63   1.325       .  A
N62         Mn64   2.219   1_545  S
N63          C65   1.355       .  A
Mn64        Cl88   2.579       .  S
C65         C212   1.477       .  S
C66         C224   1.481       .  S
N67          N68   1.321       .  A
N67          N73   1.320       .  A
N67        Mn330   2.211   1_545  S
N68          C76   1.350       .  A
N69          N71   1.319       .  A
N69          N70   1.325       .  A
N69         Mn87   2.221       .  S
N70          C77   1.355       .  A
N71          N72   1.321       .  A
N71        Mn330   2.212       .  S
N72          C77   1.350       .  A
N73          N74   1.326       .  A
N73         Mn87   2.226   1_545  S
N74          C76   1.356       .  A
Mn75        N322   2.209   1_564  S
Mn75        N326   2.207   1_554  S
Mn75        Cl88   2.542       .  S
C76         C220   1.480       .  S
C77         C232   1.478       .  S
N78          N79   1.322       .  A
N78          N84   1.320       .  A
N78        Mn341   2.206       .  S
N79          C89   1.351       .  A
N80          N81   1.325       .  A
N80          N82   1.319       .  A
N80         Mn87   2.233   1_545  S
N81          C90   1.356       .  A
N82          N83   1.322       .  A
N82        Mn341   2.205   1_545  S
N83          C90   1.351       .  A
N84          N85   1.325       .  A
N84         Mn87   2.235       .  S
N85          C89   1.356       .  A
Mn86        N333   2.206       .  S
Mn86        N337   2.207   1_565  S
Mn86        Cl88   2.544   1_556  S
Mn87       Cl343   2.582       .  S
Cl88       Mn342   2.577   1_554  S
C89         C229   1.486       .  S
C90         C209   1.485       .  S
N91          N92   1.322       .  A
N91          N97   1.319       .  A
N91        Mn120   2.213   1_654  S
N92          C99   1.351       .  A
N93          N95   1.319       .  A
N93          N94   1.324       .  A
N93        Mn109   2.216       .  S
N94         C100   1.355       .  A
N95          N96   1.321       .  A
N95        Mn120   2.212   1_554  S
N96         C100   1.350       .  A
N97          N98   1.325       .  A
N97        Mn109   2.222   1_655  S
N98          C99   1.355       .  A
C99         C204   1.479       .  S
C100        C176   1.476       .  S
N101        N107   1.319       .  A
N101        N102   1.322       .  A
N101       Mn131   2.202       .  S
N102        C110   1.351       .  A
N103        N104   1.323       .  A
N103        N105   1.319       .  A
N103       Mn109   2.226   1_655  S
N104        C111   1.354       .  A
N105        N106   1.322       .  A
N105       Mn131   2.203   1_655  S
N106        C111   1.352       .  A
N107        N108   1.325       .  A
N107       Mn109   2.234       .  S
N108        C110   1.356       .  A
Mn109      Cl133   2.575       .  S
C110        C188   1.485       .  S
C111        C192   1.480       .  S
N112        N113   1.322       .  A
N112        N118   1.320       .  A
N112       Mn375   2.203       .  S
N113        C121   1.351       .  A
N114        N116   1.319       .  A
N114        N115   1.325       .  A
N114       Mn132   2.233   1_655  S
N115        C122   1.357       .  A
N116        N117   1.323       .  A
N116       Mn375   2.209   1_655  S
N117        C122   1.352       .  A
N118        N119   1.325       .  A
N118       Mn132   2.237       .  S
N119        C121   1.356       .  A
Mn120       N367   2.200       .  S
Mn120       N371   2.211   1_455  S
Mn120      Cl133   2.545   1_556  S
C121        C181   1.485       .  S
C122        C201   1.489       .  S
N123        N124   1.321       .  A
N123        N129   1.319       .  A
N123       Mn386   2.207   1_655  S
N124        C134   1.350       .  A
N125        N126   1.325       .  A
N125        N127   1.320       .  A
N125       Mn132   2.222       .  S
N126        C135   1.355       .  A
N127        N128   1.321       .  A
N127       Mn386   2.212       .  S
N128        C135   1.350       .  A
N129        N130   1.325       .  A
N129       Mn132   2.226   1_655  S
N130        C134   1.357       .  A
Mn131       N378   2.209   1_454  S
Mn131       N382   2.204   1_554  S
Mn131      Cl133   2.545       .  S
Mn132      Cl388   2.581       .  S
Cl133      Mn387   2.576   1_554  S
C134        C197   1.482       .  S
C135        C185   1.478       .  S
C136        H137   1.113       .  S
C136        C142   1.535       .  S
C136        C141   1.535       .  S
C136        C140   1.523       .  S
C138        H139   1.099       .  S
C138        C144   1.553       .  S
C138        C143   1.515       .  S
C138        C145   1.552       .  S
C140        C143   1.355       .  D
C140        C255   1.416       .  S
C141        C144   1.383       .  D
C141        C189   1.495       .  S
C142        C145   1.382       .  D
C142        C216   1.493       .  S
C143        C253   1.418       .  S
C144        C184   1.507       .  S
C145        C221   1.508       .  S
C146        H147   1.109       .  S
C146        C152   1.538       .  S
C146        C151   1.546       .  S
C146        C150   1.521       .  S
C148        H149   1.108       .  S
C148        C154   1.541       .  S
C148        C153   1.525       .  S
C148        C155   1.549       .  S
C150        C153   1.358       .  D
C150        C251   1.425       .  S
C151        C154   1.381       .  D
C151        C213   1.503       .  S
C152        C155   1.381       .  D
C152        C193   1.492       .  S
C153        C248   1.424       .  S
C154        C208   1.495       .  S
C155        C196   1.507       .  S
C156        H157   1.109       .  S
C156        C162   1.546       .  S
C156        C161   1.538       .  S
C156        C160   1.522       .  S
C158        H159   1.108       .  S
C158        C164   1.548       .  S
C158        C163   1.520       .  S
C158        C165   1.538       .  S
C160        C163   1.357       .  D
C160        C242   1.420       .  S
C161        C164   1.381       .  D
C161        C236   1.493       .  S
C162        C165   1.380       .  D
C162        C177   1.502       .  S
C163        C241   1.419       .  S
C164        C233   1.505       .  S
C165        C180   1.494       .  S
C166        H167   1.103       .  S
C166        C172   1.552       .  S
C166        C171   1.555       .  S
C166        C170   1.516       .  S
C168        H169   1.112       .  S
C168        C174   1.535       .  S
C168        C173   1.523       .  S
C168        C175   1.537       .  S
C170        C173   1.355       .  D
C170        C247   1.419       .  S
C171        C174   1.381       .  D
C171        C205   1.505       .  S
C172        C175   1.383       .  D
C172        C225   1.508       .  S
C173        C244   1.416       .  S
C174        C200   1.498       .  S
C175        C228   1.495       .  S
C176        C177   1.349       .  D
C176        H178   1.082       .  S
C177        H179   1.087       .  S
C180        C181   1.353       .  D
C180        H182   1.085       .  S
C181        H183   1.086       .  S
C184        C185   1.351       .  D
C184        H186   1.086       .  S
C185        H187   1.080       .  S
C188        C189   1.352       .  D
C188        H190   1.088       .  S
C189        H191   1.087       .  S
C192        C193   1.350       .  D
C192        H194   1.087       .  S
C193        H195   1.086       .  S
C196        C197   1.348       .  D
C196        H198   1.086       .  S
C197        H199   1.082       .  S
C200        C201   1.353       .  D
C200        H202   1.085       .  S
C201        H203   1.086       .  S
C204        C205   1.350       .  D
C204        H206   1.081       .  S
C205        H207   1.086       .  S
C208        C209   1.352       .  D
C208        H210   1.085       .  S
C209        H211   1.085       .  S
C212        C213   1.351       .  D
C212        H214   1.081       .  S
C213        H215   1.086       .  S
C216        C217   1.352       .  D
C216        H218   1.085       .  S
C217        H219   1.085       .  S
C220        C221   1.351       .  D
C220        H222   1.079       .  S
C221        H223   1.085       .  S
C224        C225   1.353       .  D
C224        H226   1.081       .  S
C225        H227   1.086       .  S
C228        C229   1.353       .  D
C228        H230   1.085       .  S
C229        H231   1.086       .  S
C232        C233   1.350       .  D
C232        H234   1.081       .  S
C233        H235   1.086       .  S
C236        C237   1.352       .  D
C236        H238   1.085       .  S
C237        H239   1.085       .  S
C240        C241   1.190       .  T
C242        C243   1.190       .  T
C244        C245   1.187       .  T
C246        C247   1.189       .  T
C248        C249   1.192       .  T
C250        C251   1.193       .  T
C252        C253   1.188       .  T
C254        C255   1.187       .  T
N256        N257   1.314       .  A
N256        N262   1.313       .  A
N257        C264   1.346       .  A
N258        N260   1.313       .  A
N258        N259   1.315       .  A
N259        C265   1.346       .  A
N260        N261   1.314       .  A
N260       Mn285   2.162       .  S
N261        C265   1.345       .  A
N262        N263   1.316       .  A
N262       Mn274   2.176       .  S
N263        C264   1.347       .  A
C264        C505   1.409       .  S
C265        C504   1.404       .  S
N266        N272   1.314       .  A
N266        N267   1.315       .  A
N267        C275   1.346       .  A
N268        N269   1.315       .  A
N268        N270   1.314       .  A
N268       Mn274   2.170       .  S
N269        C276   1.346       .  A
N270        N271   1.315       .  A
N270       Mn296   2.168       .  S
N271        C276   1.346       .  A
N272        N273   1.316       .  A
N273        C275   1.347       .  A
Mn274      Cl298   2.531       .  S
C275        C507   1.412       .  S
C276        C509   1.406       .  S
N277        N278   1.314       .  A
N277        N283   1.313       .  A
N277       Mn285   2.166       .  S
N278        C286   1.344       .  A
N279        N281   1.314       .  A
N279        N280   1.317       .  A
N280        C287   1.348       .  A
N281        N282   1.315       .  A
N282        C287   1.345       .  A
N283        N284   1.316       .  A
N283       Mn297   2.172       .  S
N284        C286   1.347       .  A
C286        C500   1.407       .  S
C287        C501   1.414       .  S
N288        N289   1.315       .  A
N288        N294   1.314       .  A
N288       Mn296   2.171       .  S
N289        C299   1.345       .  A
N290        N291   1.316       .  A
N290        N292   1.314       .  A
N290       Mn297   2.179       .  S
N291        C300   1.347       .  A
N292        N293   1.316       .  A
N293        C300   1.346       .  A
N294        N295   1.315       .  A
N295        C299   1.345       .  A
Mn296      Cl298   2.522       .  S
C299        C498   1.407       .  S
C300        C495   1.412       .  S
N301        N302   1.322       .  A
N301        N307   1.320       .  A
N301       Mn330   2.204       .  S
N302        C309   1.350       .  A
N303        N305   1.320       .  A
N303        N304   1.325       .  A
N303       Mn319   2.238   1_545  S
N304        C310   1.356       .  A
N305        N306   1.322       .  A
N305       Mn330   2.202   1_545  S
N306        C310   1.350       .  A
N307        N308   1.324       .  A
N307       Mn319   2.232       .  S
N308        C309   1.355       .  A
C309        C492   1.483       .  S
C310        C472   1.485       .  S
N311        N317   1.319       .  A
N311        N312   1.320       .  A
N311       Mn341   2.209   1_545  S
N312        C320   1.349       .  A
N313        N314   1.326       .  A
N313        N315   1.320       .  A
N313       Mn319   2.230       .  S
N314        C321   1.356       .  A
N315        N316   1.322       .  A
N315       Mn341   2.213       .  S
N316        C321   1.350       .  A
N317        N318   1.325       .  A
N317       Mn319   2.225   1_545  S
N318        C320   1.356       .  A
Mn319      Cl343   2.581       .  S
C320        C467   1.477       .  S
C321        C479   1.482       .  S
N322        N323   1.321       .  A
N322        N328   1.319       .  A
N323        C331   1.350       .  A
N324        N326   1.319       .  A
N324        N325   1.325       .  A
N324       Mn342   2.224       .  S
N325        C332   1.355       .  A
N326        N327   1.321       .  A
N327        C332   1.349       .  A
N328        N329   1.326       .  A
N328       Mn342   2.225   1_545  S
N329        C331   1.356       .  A
Mn330      Cl343   2.542       .  S
C331        C475   1.479       .  S
C332        C487   1.476       .  S
N333        N334   1.322       .  A
N333        N339   1.320       .  A
N334        C344   1.352       .  A
N335        N336   1.324       .  A
N335        N337   1.320       .  A
N335       Mn342   2.232   1_545  S
N336        C345   1.355       .  A
N337        N338   1.322       .  A
N338        C345   1.351       .  A
N339        N340   1.324       .  A
N339       Mn342   2.229       .  S
N340        C344   1.355       .  A
Mn341      Cl343   2.543       .  S
C344        C484   1.484       .  S
C345        C464   1.483       .  S
N346        N347   1.321       .  A
N346        N352   1.319       .  A
N346       Mn375   2.201   1_655  S
N347        C354   1.348       .  A
N348        N350   1.320       .  A
N348        N349   1.325       .  A
N348       Mn364   2.221       .  S
N349        C355   1.354       .  A
N350        N351   1.321       .  A
N350       Mn375   2.218       .  S
N351        C355   1.350       .  A
N352        N353   1.325       .  A
N352       Mn364   2.226   1_655  S
N353        C354   1.356       .  A
C354        C459   1.476       .  S
C355        C431   1.478       .  S
N356        N362   1.320       .  A
N356        N357   1.323       .  A
N356       Mn386   2.206       .  S
N357        C365   1.351       .  A
N358        N359   1.324       .  A
N358        N360   1.319       .  A
N358       Mn364   2.229   1_655  S
N359        C366   1.356       .  A
N360        N361   1.321       .  A
N360       Mn386   2.199   1_655  S
N361        C366   1.350       .  A
N362        N363   1.327       .  A
N362       Mn364   2.243       .  S
N363        C365   1.357       .  A
Mn364      Cl388   2.582       .  S
C365        C443   1.490       .  S
C366        C447   1.482       .  S
N367        N368   1.322       .  A
N367        N373   1.319       .  A
N368        C376   1.351       .  A
N369        N371   1.320       .  A
N369        N370   1.325       .  A
N369       Mn387   2.236   1_655  S
N370        C377   1.356       .  A
N371        N372   1.324       .  A
N372        C377   1.353       .  A
N373        N374   1.324       .  A
N373       Mn387   2.231       .  S
N374        C376   1.356       .  A
Mn375      Cl388   2.542       .  S
C376        C436   1.482       .  S
C377        C456   1.488       .  S
N378        N379   1.320       .  A
N378        N384   1.319       .  A
N379        C389   1.349       .  A
N380        N381   1.324       .  A
N380        N382   1.319       .  A
N380       Mn387   2.225       .  S
N381        C390   1.355       .  A
N382        N383   1.321       .  A
N383        C390   1.349       .  A
N384        N385   1.325       .  A
N384       Mn387   2.221   1_655  S
N385        C389   1.355       .  A
Mn386      Cl388   2.540       .  S
C389        C452   1.476       .  S
C390        C440   1.475       .  S
C391        H392   1.113       .  S
C391        C397   1.536       .  S
C391        C396   1.534       .  S
C391        C395   1.524       .  S
C393        H394   1.107       .  S
C393        C399   1.553       .  S
C393        C398   1.517       .  S
C393        C400   1.551       .  S
C395        C398   1.357       .  D
C395        C510   1.417       .  S
C396        C399   1.379       .  D
C396        C444   1.499       .  S
C397        C400   1.382       .  D
C397        C471   1.494       .  S
C398        C508   1.422       .  S
C399        C439   1.499       .  S
C400        C476   1.505       .  S
C401        H402   1.108       .  S
C401        C407   1.541       .  S
C401        C406   1.547       .  S
C401        C405   1.520       .  S
C403        H404   1.108       .  S
C403        C409   1.538       .  S
C403        C408   1.520       .  S
C403        C410   1.545       .  S
C405        C408   1.356       .  D
C405        C506   1.421       .  S
C406        C409   1.381       .  D
C406        C468   1.504       .  S
C407        C410   1.381       .  D
C407        C448   1.493       .  S
C408        C503   1.416       .  S
C409        C463   1.493       .  S
C410        C451   1.504       .  S
C411        H412   1.108       .  S
C411        C417   1.545       .  S
C411        C416   1.539       .  S
C411        C415   1.519       .  S
C413        H414   1.110       .  S
C413        C419   1.544       .  S
C413        C418   1.522       .  S
C413        C420   1.541       .  S
C415        C418   1.357       .  D
C415        C497   1.417       .  S
C416        C419   1.379       .  D
C416        C491   1.493       .  S
C417        C420   1.383       .  D
C417        C432   1.507       .  S
C418        C496   1.423       .  S
C419        C488   1.501       .  S
C420        C435   1.492       .  S
C421        H422   1.106       .  S
C421        C427   1.553       .  S
C421        C426   1.557       .  S
C421        C425   1.518       .  S
C423        H424   1.113       .  S
C423        C429   1.531       .  S
C423        C428   1.526       .  S
C423        C430   1.533       .  S
C425        C428   1.357       .  D
C425        C502   1.424       .  S
C426        C429   1.381       .  D
C426        C460   1.502       .  S
C427        C430   1.381       .  D
C427        C480   1.506       .  S
C428        C499   1.418       .  S
C429        C455   1.497       .  S
C430        C483   1.493       .  S
C431        C432   1.352       .  D
C431        H433   1.079       .  S
C432        H434   1.085       .  S
C435        C436   1.351       .  D
C435        H437   1.086       .  S
C436        H438   1.086       .  S
C439        C440   1.348       .  D
C439        H441   1.086       .  S
C440        H442   1.083       .  S
C443        C444   1.355       .  D
C443        H445   1.087       .  S
C444        H446   1.086       .  S
C447        C448   1.352       .  D
C447        H449   1.085       .  S
C448        H450   1.085       .  S
C451        C452   1.349       .  D
C451        H453   1.087       .  S
C452        H454   1.081       .  S
C455        C456   1.352       .  D
C455        H457   1.085       .  S
C456        H458   1.086       .  S
C459        C460   1.348       .  D
C459        H461   1.082       .  S
C460        H462   1.087       .  S
C463        C464   1.351       .  D
C463        H465   1.084       .  S
C464        H466   1.085       .  S
C467        C468   1.350       .  D
C467        H469   1.083       .  S
C468        H470   1.088       .  S
C471        C472   1.352       .  D
C471        H473   1.085       .  S
C472        H474   1.085       .  S
C475        C476   1.352       .  D
C475        H477   1.082       .  S
C476        H478   1.086       .  S
C479        C480   1.352       .  D
C479        H481   1.082       .  S
C480        H482   1.086       .  S
C483        C484   1.350       .  D
C483        H485   1.085       .  S
C484        H486   1.086       .  S
C487        C488   1.349       .  D
C487        H489   1.084       .  S
C488        H490   1.088       .  S
C491        C492   1.352       .  D
C491        H493   1.085       .  S
C492        H494   1.085       .  S
C495        C496   1.192       .  T
C497        C498   1.188       .  T
C499        C500   1.189       .  T
C501        C502   1.193       .  T
C503        C504   1.187       .  T
C505        C506   1.190       .  T
C507        C508   1.191       .  T
C509        C510   1.188       .  T
