geometry optimzed in LAMMPS
_audit_creation_date              2020-11-30 
_audit_creation_method            'lammps2cif' 
_symmetry_space_group_name_H-M    'P1' 
_symmetry_Int_Tables_number       1 
_symmetry_cell_setting            triclinic 
loop_ 
_symmetry_equiv_pos_as_xyz 
  x,y,z 
_cell_length_a                    25.649087104330814 
_cell_length_b                    59.01594148934276 
_cell_length_c                    25.817258363569316 
_cell_angle_alpha                 89.85377923030023 
_cell_angle_beta                  89.87579129695857 
_cell_angle_gamma                 90.18254061613872 
loop_ 
_atom_site_label 
_atom_site_type_symbol 
_atom_site_fract_x 
_atom_site_fract_y 
_atom_site_fract_z 
_atom_site_charge 
C1          C  0.36295684  0.29734919  0.79078652     0.03360
C2          C  0.41789929  0.29826245  0.79095349    -0.12790
C3          C  0.44794526  0.29608469  0.74482567     0.00860
C4          C  0.41980226  0.29338244  0.69771960    -0.11310
C5          C  0.36475041  0.29372377  0.69613298     0.03360
C6          C  0.33711969  0.29559139  0.74312814    -0.10730
H7          H  0.43611612  0.30062259  0.82804766     0.08950
H8          H  0.43969909  0.29028949  0.66176188     0.06480
H9          H  0.29497018  0.29492967  0.74281299     0.06330
C10         C  0.59030782  0.29892308  0.79531419     0.03360
C11         C  0.53563157  0.29680705  0.79378062    -0.12790
C12         C  0.50775203  0.29653826  0.74609724     0.00860
C13         C  0.53822990  0.29635362  0.69982559    -0.11310
C14         C  0.59332087  0.29727986  0.70092479     0.03360
C15         C  0.61815095  0.30008263  0.74882109    -0.10730
H16         H  0.51608882  0.29526202  0.83055560     0.08950
H17         H  0.52020172  0.29499878  0.66241362     0.06480
H18         H  0.66011084  0.30197207  0.75025079     0.06330
C19         C  0.08958062  0.28895340  0.29253419     0.03360
C20         C  0.03662967  0.29566346  0.28997673    -0.12790
C21         C  0.00706705  0.29407745  0.24370352     0.00860
C22         C  0.03497743  0.29080341  0.19686891    -0.11310
C23         C  0.08894704  0.28630258  0.19714277     0.03360
C24         C  0.11350456  0.28287007  0.24520556    -0.10730
H25         H  0.01834361  0.30298738  0.32341725     0.08950
H26         H  0.01549926  0.29224077  0.16011524     0.06480
H27         H  0.15278142  0.27646026  0.24430896     0.06330
C28         C  0.86549066  0.29136469  0.29431851     0.03360
C29         C  0.92031726  0.29151908  0.29212354    -0.12790
C30         C  0.94776505  0.29549741  0.24515732     0.00860
C31         C  0.91767639  0.29970963  0.19999814    -0.11310
C32         C  0.86248774  0.29854666  0.20072850     0.03360
C33         C  0.83755213  0.29367690  0.24806265    -0.10730
H34         H  0.94101063  0.28811592  0.32763379     0.08950
H35         H  0.93669069  0.30423997  0.16412867     0.06480
H36         H  0.79568259  0.29223542  0.24938742     0.06330
N37         N  0.11163081  0.08789433  0.03472246    -0.27060
N38         N  0.13141915  0.07564764  0.07285325    -0.34910
C39         C  0.11842409  0.05383158  0.06604235     0.01290
C40         C  0.09131394  0.05176075  0.02017369     0.07310
C41         C  0.08694222  0.07382761  0.00188403    -0.05790
H42         H  0.13772847  0.04007996  0.08603645     0.07980
H43         H  0.07493681  0.07871196  0.96327967     0.09180
Cu44       Cu  0.19860188  0.08400293  0.11207198     0.44170
Cu45       Cu  0.13366380  0.12134264  0.01854041     0.41990
Cu46       Cu  0.26963740  0.12519426  0.04142632     0.43880
N47         N  0.27828767  0.08793851  0.11900619    -0.34440
N48         N  0.30443759  0.10296155  0.09123148    -0.28700
C49         C  0.35379573  0.10389625  0.10787707    -0.04800
C50         C  0.35936173  0.08827365  0.14718249     0.07420
C51         C  0.31082886  0.07837605  0.15338203     0.01220
H52         H  0.38203489  0.11649213  0.09568226     0.08870
H53         H  0.29879258  0.06694195  0.18402053     0.07950
N54         N  0.22634400  0.15206868  0.01643358    -0.35890
N55         N  0.17544544  0.15150979  0.00892445    -0.28070
C56         C  0.15883977  0.17286343  0.99999121    -0.03310
C57         C  0.20163526  0.18726195  0.00325459     0.05300
C58         C  0.24355951  0.17344608  0.01324323     0.03390
H59         H  0.11859856  0.17766800  0.99445336     0.08500
H60         H  0.28340290  0.17864893  0.02013645     0.07330
C61         C  0.23788595  0.28313801  0.97904685     0.00800
C62         C  0.22229379  0.29952233  0.01349480     0.00800
N63         N  0.33677833  0.49650116  0.94841005    -0.27060
N64         N  0.31110496  0.51030148  0.91695026    -0.34910
C65         C  0.32652498  0.53168666  0.92537125     0.01290
C66         C  0.36219809  0.53179947  0.96516588     0.07310
C67         C  0.36809186  0.50917117  0.97860840    -0.05790
H68         H  0.30604613  0.54631875  0.91048782     0.07980
H69         H  0.38853960  0.50271121  0.01213141     0.09180
Cu70       Cu  0.24090956  0.50372121  0.88109637     0.44170
Cu71       Cu  0.32290006  0.46155571  0.95736645     0.41990
Cu72       Cu  0.21267347  0.44754993  0.88517368     0.43880
N73         N  0.16532956  0.49270229  0.87122292    -0.34440
N74         N  0.15561168  0.47090141  0.87557460    -0.28700
C75         C  0.10516668  0.46692680  0.86695026    -0.04800
C76         C  0.08154046  0.48727106  0.85530950     0.07420
C77         C  0.12084212  0.50344101  0.85855370     0.01220
H78         H  0.08835455  0.45015229  0.86356377     0.08870
H79         H  0.11840942  0.52113564  0.84780584     0.07950
N80         N  0.25862392  0.42356192  0.91737740    -0.35890
N81         N  0.29711397  0.42795397  0.94961148    -0.28070
C82         C  0.30880025  0.40859678  0.97526276    -0.03310
C83         C  0.27539762  0.39157271  0.95774699     0.05300
C84         C  0.24494452  0.40180439  0.92070983     0.03390
H85         H  0.33626893  0.40744620  0.00687617     0.08500
H86         H  0.21163129  0.39453714  0.90112608     0.07330
C87         C  0.71741826  0.28871272  0.98393837     0.00800
C88         C  0.73294404  0.30686005  0.01409031     0.00800
N89         N  0.83702772  0.09310637  0.04917529    -0.27060
N90         N  0.81797224  0.07928050  0.08502707    -0.34910
C91         C  0.83261244  0.05799100  0.07472187     0.01290
C92         C  0.86086844  0.05799539  0.02928498     0.07310
C93         C  0.86337153  0.08060003  0.01438242    -0.05790
H94         H  0.81559921  0.04326475  0.09334473     0.07980
H95         H  0.87740764  0.08705158  0.97761660     0.09180
Cu96       Cu  0.75466252  0.08608153  0.13108922     0.44170
Cu97       Cu  0.81843323  0.12761858  0.04278485     0.41990
Cu98       Cu  0.72740850  0.14291127  0.14084474     0.43880
N99         N  0.68130725  0.09692138  0.15054708    -0.34440
N100        N  0.67143924  0.11874848  0.15355231    -0.28700
C101        C  0.62096668  0.12174537  0.16471456    -0.04800
C102        C  0.59783776  0.10066189  0.16933191     0.07420
C103        C  0.63726641  0.08520072  0.16024435     0.01220
H104        H  0.60316814  0.13804731  0.17182337     0.08870
H105        H  0.63480300  0.06693320  0.16299154     0.07950
N106        N  0.76781657  0.16618676  0.09796013    -0.35890
N107        N  0.79574260  0.16115035  0.05672751    -0.28070
C108        C  0.80200475  0.18019911  0.02824693    -0.03310
C109        C  0.77703750  0.19817715  0.05340417     0.05300
C110        C  0.75674246  0.18825300  0.09792775     0.03390
H111        H  0.82011118  0.18029382  0.99050860     0.08500
H112        H  0.73158400  0.19574334  0.12666528     0.07330
N113        N  0.61163638  0.50288880  0.97440889    -0.27060
N114        N  0.62450830  0.51653303  0.93561540    -0.34910
C115        C  0.61499734  0.53803303  0.94902690     0.01290
C116        C  0.59719131  0.53839260  0.99940402     0.07310
C117        C  0.59520137  0.51575776  0.01421876    -0.05790
H118        H  0.63016185  0.55246805  0.92780312     0.07980
H119        H  0.58911993  0.50940480  0.05313661     0.09180
Cu120      Cu  0.67860185  0.50900872  0.87955866     0.44170
Cu121      Cu  0.62702564  0.46790827  0.97611074     0.41990
Cu122      Cu  0.69097743  0.45133884  0.86077070     0.43880
N123        N  0.74735532  0.49536452  0.85380675    -0.34440
N124        N  0.75078834  0.47330427  0.84746406    -0.28700
C125        C  0.80018393  0.46774028  0.83756615    -0.04800
C126        C  0.82960962  0.48732468  0.83698566     0.07420
C127        C  0.79488723  0.50471587  0.84693543     0.01220
H128        H  0.81338446  0.45066686  0.82994175     0.08870
H129        H  0.80329249  0.52267406  0.84850594     0.07950
N130        N  0.66647867  0.42849655  0.91450224    -0.35890
N131        N  0.64658777  0.43412444  0.95990164    -0.28070
C132        C  0.64804998  0.41570932  0.99105841    -0.03310
C133        C  0.67088215  0.39811065  0.96355881     0.05300
C134        C  0.68154083  0.40683157  0.91528254     0.03390
H135        H  0.63695210  0.41557945  0.03152203     0.08500
H136        H  0.70274435  0.39860940  0.88433110     0.07330
O137        O  0.42148164  0.07036463  0.20115436    -0.72710
O138        O  0.52986291  0.07342000  0.31253899    -0.73690
O139        O  0.41840975  0.06779016  0.30990215    -0.62310
O140        O  0.53318067  0.07623768  0.20530656    -0.70720
O141        O  0.52198726  0.11352042  0.21025685    -0.70270
O142        O  0.40985673  0.10525405  0.31343410    -0.61530
O143        O  0.51820991  0.11070624  0.31646930    -0.74030
O144        O  0.41331655  0.10783958  0.20493000    -0.72810
Cu145      Cu  0.47575449  0.07052233  0.25701937     1.04560
Cu146      Cu  0.46511822  0.11053271  0.26138344     1.04330
C147        C  0.40033520  0.08874377  0.18588143     0.93490
C148        C  0.54326073  0.09293236  0.32921112     0.92630
C149        C  0.39623329  0.08545087  0.32788388     0.84770
C150        C  0.54777195  0.09644747  0.19454848     0.91050
N151        N  0.10001061  0.08767372  0.45330058    -0.27060
N152        N  0.12045494  0.07502645  0.41634236    -0.34910
C153        C  0.10913822  0.05318653  0.42553325     0.01290
C154        C  0.08276659  0.05153497  0.47202288     0.07310
C155        C  0.07697442  0.07384978  0.48814845    -0.05790
H156        H  0.12969496  0.03939415  0.40705277     0.07980
H157        H  0.06524653  0.07923178  0.52647953     0.09180
Cu158      Cu  0.18932615  0.08323586  0.38012634     0.44170
Cu159      Cu  0.12121981  0.12159336  0.46466379     0.41990
Cu160      Cu  0.25835142  0.12094942  0.46472070     0.43880
N161        N  0.26952034  0.08486299  0.38398591    -0.34440
N162        N  0.29453079  0.09804629  0.41696107    -0.28700
C163        C  0.34549015  0.09785508  0.40555661    -0.04800
C164        C  0.35311730  0.08350333  0.36415215     0.07420
C165        C  0.30417520  0.07545543  0.35150245     0.01220
H166        H  0.37377793  0.10944329  0.42186264     0.08870
H167        H  0.29377681  0.06586207  0.31735420     0.07950
N168        N  0.21655985  0.14985882  0.47920074    -0.35890
N169        N  0.16545588  0.15105056  0.47495026    -0.28070
C170        C  0.15146939  0.17307967  0.47567364    -0.03310
C171        C  0.19630876  0.18638192  0.48112450     0.05300
C172        C  0.23651683  0.17075498  0.48344104     0.03390
H173        H  0.11199620  0.17876998  0.46989296     0.08500
H174        H  0.27782942  0.17417055  0.48589132     0.07330
N175        N  0.33385138  0.49644524  0.54318361    -0.27060
N176        N  0.31153457  0.51078079  0.57580043    -0.34910
C177        C  0.32782824  0.53188950  0.56536709     0.01290
C178        C  0.36073988  0.53137725  0.52312058     0.07310
C179        C  0.36361924  0.50857657  0.50995043    -0.05790
H180        H  0.30981467  0.54687242  0.58145715     0.07980
H181        H  0.38138125  0.50166220  0.47540143     0.09180
Cu182      Cu  0.24493033  0.50491079  0.61877034     0.44170
Cu183      Cu  0.31804288  0.46130677  0.54027153     0.41990
Cu184      Cu  0.22696733  0.44821585  0.63782556     0.43880
N185        N  0.17359200  0.49259570  0.64251554    -0.34440
N186        N  0.16821444  0.47058237  0.64857896    -0.28700
C187        C  0.11907397  0.46567139  0.66130520    -0.04800
C188        C  0.09176556  0.48567540  0.66438530     0.07420
C189        C  0.12748621  0.50262563  0.65247452     0.01220
H190        H  0.10507531  0.44880725  0.67045893     0.08870
H191        H  0.12108954  0.52073231  0.65302560     0.07950
N192        N  0.26260554  0.42380270  0.59606507    -0.35890
N193        N  0.29374412  0.42782987  0.55639379    -0.28070
C194        C  0.29956957  0.40822199  0.53005962    -0.03310
C195        C  0.27035615  0.39130181  0.55486146     0.05300
C196        C  0.24738544  0.40214390  0.59618486     0.03390
H197        H  0.32090062  0.40667517  0.49405553     0.08500
H198        H  0.21705255  0.39561824  0.62126883     0.07330
C199        C  0.23681886  0.28239587  0.50847786     0.00800
C200        C  0.21746147  0.30055336  0.48056102     0.00800
C201        C  0.72201472  0.28628489  0.51396689     0.00800
C202        C  0.74174017  0.30330712  0.48296558     0.00800
N203        N  0.84499858  0.09025200  0.45126175    -0.27060
N204        N  0.82224546  0.07671952  0.41715393    -0.34910
C205        C  0.83746864  0.05532873  0.42545578     0.01290
C206        C  0.86964907  0.05481791  0.46809242     0.07310
C207        C  0.87402663  0.07733858  0.48314839    -0.05790
H208        H  0.81798214  0.04081237  0.40867418     0.07980
H209        H  0.89107000  0.08342634  0.51882825     0.09180
Cu210      Cu  0.75314152  0.08302812  0.37944082     0.44170
Cu211      Cu  0.82836481  0.12494289  0.46092828     0.41990
Cu212      Cu  0.71956246  0.13844250  0.38434975     0.43880
N213        N  0.67653171  0.09251136  0.37084966    -0.34440
N214        N  0.66456585  0.11406885  0.37490796    -0.28700
C215        C  0.61346822  0.11683063  0.36764644    -0.04800
C216        C  0.59185127  0.09588472  0.35750905     0.07420
C217        C  0.63296523  0.08069231  0.35999034     0.01220
H218        H  0.59459792  0.13315323  0.36455807     0.08870
H219        H  0.63213120  0.06288398  0.35017011     0.07950
N220        N  0.76360564  0.16250098  0.41891400    -0.35890
N221        N  0.80090957  0.15829605  0.45263343    -0.28070
C222        C  0.81087299  0.17765871  0.47889412    -0.03310
C223        C  0.77763468  0.19447180  0.46021968     0.05300
C224        C  0.74909738  0.18411496  0.42189032     0.03390
H225        H  0.83717079  0.17893742  0.51144928     0.08500
H226        H  0.71655230  0.19118099  0.40079420     0.07330
N227        N  0.62229716  0.50017544  0.51532740    -0.27060
N228        N  0.63521467  0.51440463  0.55276192    -0.34910
C229        C  0.61900545  0.53531088  0.54068968     0.01290
C230        C  0.59587311  0.53467931  0.49261834     0.07310
C231        C  0.59832863  0.51208068  0.47773833    -0.05790
H232        H  0.63116906  0.55038240  0.56123945     0.07980
H233        H  0.58874431  0.50531532  0.44000470     0.09180
Cu234      Cu  0.69152170  0.50842142  0.60715599     0.44170
Cu235      Cu  0.64472761  0.46586683  0.51335556     0.41990
Cu236      Cu  0.69657789  0.45127970  0.63582783     0.43880
N237        N  0.75780617  0.49429433  0.63659901    -0.34440
N238        N  0.75895713  0.47243685  0.64672401    -0.28700
C239        C  0.80743471  0.46652422  0.65981920    -0.04800
C240        C  0.83838108  0.48571448  0.65860502     0.07420
C241        C  0.80558352  0.50318115  0.64414544     0.01220
H242        H  0.81876313  0.44962310  0.67153638     0.08870
H243        H  0.81526381  0.52097416  0.64063414     0.07950
N244        N  0.67467696  0.42751198  0.58306018    -0.35890
N245        N  0.66432068  0.43250578  0.53439023    -0.28070
C246        C  0.67190916  0.41368000  0.50574785    -0.03310
C247        C  0.68827130  0.39609030  0.53832384     0.05300
C248        C  0.68772690  0.40568645  0.58721282     0.03390
H249        H  0.66840282  0.41321497  0.46402322     0.08500
H250        H  0.69867033  0.39816025  0.62359585     0.07330
O251        O  0.02174454  0.50674215  0.70125896    -0.72710
O252        O  0.90269971  0.50757663  0.80319748    -0.73690
O253        O  0.01634259  0.50769350  0.80896394    -0.62310
O254        O  0.90822527  0.50650547  0.69622516    -0.70720
O255        O  0.90979818  0.46883933  0.69887806    -0.70270
O256        O  0.01323699  0.47005459  0.81060583    -0.61530
O257        O  0.90396953  0.46989815  0.80414098    -0.74030
O258        O  0.01953536  0.46910650  0.70451740    -0.72810
Cu259      Cu  0.96238095  0.50859475  0.75233113     1.04560
Cu260      Cu  0.96179490  0.46831535  0.75457972     1.04330
C261        C  0.04111708  0.48748427  0.68970603     0.93490
C262        C  0.88218949  0.48856446  0.81573132     0.92630
C263        C  0.03369566  0.48867014  0.82508247     0.84770
C264        C  0.88908811  0.48726099  0.68369421     0.91050
C265        C  0.37708054  0.78675889  0.29742468     0.03120
C266        C  0.43142047  0.79032437  0.29572265    -0.12790
C267        C  0.45985841  0.78980989  0.24834100     0.00860
C268        C  0.43004832  0.78896251  0.20183769    -0.11310
C269        C  0.37539609  0.78585781  0.20263696     0.03360
C270        C  0.35074992  0.78288527  0.25073846    -0.10730
H271        H  0.45042376  0.79469268  0.33148543     0.08950
H272        H  0.44811469  0.79178553  0.16480089     0.06480
H273        H  0.30936446  0.77921925  0.25178101     0.06330
C274        C  0.60286577  0.79529274  0.29531149     0.03360
C275        C  0.54864744  0.79120497  0.29454101    -0.12790
C276        C  0.51937968  0.79183077  0.24779955     0.00860
C277        C  0.54820794  0.79375252  0.20085131    -0.11310
C278        C  0.60268746  0.79721988  0.20065610     0.03360
C279        C  0.62881397  0.79879710  0.24812012    -0.10730
H280        H  0.53025186  0.78697917  0.33085596     0.08950
H281        H  0.52945408  0.79210308  0.16384458     0.06480
H282        H  0.67014606  0.80260364  0.24821111     0.06330
C283        C  0.10232701  0.79138592  0.79759594     0.03360
C284        C  0.04758897  0.79383825  0.79622401    -0.12790
C285        C  0.01937891  0.79456723  0.74883211     0.00860
C286        C  0.04943673  0.79493083  0.70249701    -0.11310
C287        C  0.10410240  0.79238475  0.70284216     0.03360
C288        C  0.12977138  0.79039349  0.75057104    -0.10730
H289        H  0.02808274  0.79549464  0.83291053     0.08950
H290        H  0.03141293  0.79754572  0.66536897     0.06480
H291        H  0.17155369  0.78780909  0.75107237     0.06330
C292        C  0.87436849  0.79618456  0.79327449     0.03360
C293        C  0.92935032  0.79500559  0.79397655    -0.12790
C294        C  0.95960531  0.79519481  0.74761957     0.00860
C295        C  0.93155878  0.79463875  0.70004172    -0.11310
C296        C  0.87673974  0.79639832  0.69841434     0.03360
C297        C  0.84938614  0.79851424  0.74530264    -0.10730
H298        H  0.94746802  0.79314417  0.83124096     0.08950
H299        H  0.95123180  0.79185380  0.66379240     0.06480
H300        H  0.80759873  0.80097208  0.74431407     0.06330
N301        N  0.11956887  0.99737778  0.52475341    -0.27060
N302        N  0.14399677  0.01170180  0.55595505    -0.34910
C303        C  0.12710926  0.03280414  0.54668851     0.01290
C304        C  0.09126051  0.03219753  0.50695674     0.07310
C305        C  0.08757582  0.00943534  0.49385928    -0.05790
H306        H  0.14562267  0.04784104  0.56209927     0.07980
H307        H  0.06723495  0.00247973  0.46081972     0.09180
Cu308      Cu  0.21117298  0.00536191  0.59774177     0.44170
Cu309      Cu  0.13443170  0.96232634  0.51987013     0.41990
Cu310      Cu  0.22811100  0.94813674  0.61343359     0.43880
N311        N  0.28094072  0.99268624  0.62478879    -0.34440
N312        N  0.28596180  0.97059992  0.62967241    -0.28700
C313        C  0.33393807  0.96567666  0.64594512    -0.04800
C314        C  0.36079090  0.98570964  0.65248938     0.07420
C315        C  0.32606368  0.00270114  0.63893870     0.01220
H316        H  0.34736278  0.94873768  0.65478711     0.08870
H317        H  0.33235546  0.02080815  0.64106095     0.07950
N318        N  0.19016583  0.92420721  0.57156313    -0.35890
N319        N  0.15798120  0.92867870  0.53308906    -0.28070
C320        C  0.15070140  0.90935872  0.50582394    -0.03310
C321        C  0.18026664  0.89232369  0.52882975     0.05300
C322        C  0.20437849  0.90247420  0.57022206     0.03390
H323        H  0.12910701  0.90821429  0.46997561     0.08500
H324        H  0.23408159  0.89512878  0.59471866     0.07330
C325        C  0.24826677  0.80128626  0.48301656     0.00800
C326        C  0.23542046  0.78451642  0.51793424     0.00800
N327        N  0.34430738  0.58677347  0.47196942    -0.27060
N328        N  0.31981989  0.57404430  0.43761313    -0.34910
C329        C  0.33290109  0.55228648  0.44477237     0.01290
C330        C  0.36509192  0.55070911  0.48737294     0.07310
C331        C  0.37215723  0.57304284  0.50307865    -0.05790
H332        H  0.31082503  0.53836559  0.42851001     0.07980
H333        H  0.38875377  0.57842341  0.53955375     0.09180
Cu334      Cu  0.24831158  0.58205321  0.40688576     0.44170
Cu335      Cu  0.32570745  0.62085810  0.48567233     0.41990
Cu336      Cu  0.18786455  0.62652538  0.47437181     0.43880
N337        N  0.16861505  0.58652464  0.40755074    -0.34440
N338        N  0.14616767  0.60289264  0.43406295    -0.28700
C339        C  0.09640362  0.60483392  0.41908226    -0.04800
C340        C  0.08682237  0.58867710  0.38170293     0.07420
C341        C  0.13328435  0.57712169  0.37589433     0.01220
H342        H  0.07170955  0.61904490  0.42877602     0.08870
H343        H  0.14291397  0.56538270  0.34520236     0.07950
N344        N  0.23639030  0.65342744  0.48768897    -0.35890
N345        N  0.28764048  0.65213399  0.49160211    -0.28070
C346        C  0.30696630  0.67340429  0.49539944    -0.03310
C347        C  0.26553503  0.68847919  0.49235041     0.05300
C348        C  0.22165421  0.67515881  0.48790961     0.03390
H349        H  0.34791150  0.67760715  0.49818403     0.08500
H350        H  0.18181274  0.68084569  0.48404245     0.07330
N351        N  0.34765155  0.58603377  0.02524725    -0.27060
N352        N  0.33521390  0.57201997  0.06344750    -0.34910
C353        C  0.34772695  0.55079687  0.05006970     0.01290
C354        C  0.36767739  0.55107910  0.00043737     0.07310
C355        C  0.36731275  0.57375199  0.98595990    -0.05790
H356        H  0.33453550  0.53594350  0.07106329     0.07980
H357        H  0.37464166  0.58042106  0.94752624     0.09180
Cu358      Cu  0.28297252  0.57923043  0.12150752     0.44170
Cu359      Cu  0.32884871  0.62056585  0.02410779     0.41990
Cu360      Cu  0.27322883  0.63707277  0.14502775     0.43880
N361        N  0.21951792  0.59252349  0.15911819    -0.34440
N362        N  0.21732391  0.61441816  0.16875097    -0.28700
C363        C  0.16985452  0.61955394  0.18661945    -0.04800
C364        C  0.14056278  0.59991394  0.18829591     0.07420
C365        C  0.17323286  0.58293183  0.17096833     0.01220
H366        H  0.15705199  0.63651887  0.19594646     0.08870
H367        H  0.16371336  0.56521242  0.16579752     0.07950
N368        N  0.29547148  0.65988789  0.08934913    -0.35890
N369        N  0.31024719  0.65414224  0.04220599    -0.28070
C370        C  0.30656604  0.67254657  0.01129260    -0.03310
C371        C  0.28869658  0.69071597  0.04082211     0.05300
C372        C  0.28278442  0.68184314  0.09015222     0.03390
H373        H  0.31270600  0.67215778  0.96987225     0.08500
H374        H  0.26650882  0.69019047  0.12370872     0.07330
N375        N  0.12601691  0.99683279  0.97141913    -0.27060
N376        N  0.14967899  0.01065958  0.93825361    -0.34910
C377        C  0.13291491  0.03186494  0.94592835     0.01290
C378        C  0.09820224  0.03189297  0.98677336     0.07310
C379        C  0.09476918  0.00936054  0.00206009    -0.05790
H380        H  0.15131507  0.04664353  0.92889061     0.07980
H381        H  0.07541986  0.00294540  0.03640249     0.09180
Cu382      Cu  0.21732955  0.00423656  0.89726634     0.44170
Cu383      Cu  0.14124952  0.96196051  0.97941565     0.41990
Cu384      Cu  0.24033024  0.94754778  0.89157986     0.43880
N385        N  0.28959666  0.99242571  0.87513324    -0.34440
N386        N  0.29731052  0.97040857  0.87504514    -0.28700
C387        C  0.34592035  0.96596260  0.85981592    -0.04800
C388        C  0.37033531  0.98623724  0.84864518     0.07420
C389        C  0.33351174  0.00285881  0.85873790     0.01220
H390        H  0.36084783  0.94907940  0.85321543     0.08870
H391        H  0.33712249  0.02085404  0.85143395     0.07950
N392        N  0.19927376  0.92377214  0.93117216    -0.35890
N393        N  0.16543315  0.92833435  0.96823204    -0.28070
C394        C  0.15650775  0.90903200  0.99530557    -0.03310
C395        C  0.18701957  0.89196137  0.97383537     0.05300
C396        C  0.21268705  0.90196239  0.93296017     0.03390
H397        H  0.13286612  0.90789100  0.02997210     0.08500
H398        H  0.24272973  0.89445643  0.90911192     0.07330
C399        C  0.23812687  0.79908170  0.02240067     0.00800
C400        C  0.22415015  0.78212607  0.98858567     0.00800
C401        C  0.74865483  0.78886339  0.98342386     0.00800
C402        C  0.73320742  0.80627676  0.01521912     0.00800
N403        N  0.83830015  0.00366059  0.97129909    -0.27060
N404        N  0.82368716  0.01771248  0.93406809    -0.34910
C405        C  0.83803554  0.03888037  0.94620926     0.01290
C406        C  0.86162383  0.03853510  0.99410784     0.07310
C407        C  0.86142477  0.01587905  0.00880578    -0.05790
H408        H  0.82414390  0.05376997  0.92601767     0.07980
H409        H  0.87170605  0.00918866  0.04648417     0.09180
Cu410      Cu  0.76729871  0.01068362  0.88021336     0.44170
Cu411      Cu  0.81880352  0.96911098  0.97354247     0.41990
Cu412      Cu  0.76311958  0.95329524  0.85296009     0.43880
N413        N  0.70145421  0.99603092  0.85041057    -0.34440
N414        N  0.70071064  0.97414981  0.84060811    -0.28700
C415        C  0.65229669  0.96790166  0.82775538    -0.04800
C416        C  0.62095331  0.98686894  0.82896875     0.07420
C417        C  0.65341551  0.00457674  0.84299862     0.01220
H418        H  0.64106436  0.95085284  0.81707113     0.08870
H419        H  0.64314088  0.02224657  0.84708734     0.07950
N420        N  0.78853795  0.93015362  0.90585747    -0.35890
N421        N  0.80108576  0.93555130  0.95376467    -0.28070
C422        C  0.79670970  0.91678583  0.98340714    -0.03310
C423        C  0.78012054  0.89880804  0.95235905     0.05300
C424        C  0.77711025  0.90807795  0.90317387     0.03390
H425        H  0.80238803  0.91659375  0.02491321     0.08500
H426        H  0.76477515  0.90004226  0.86781693     0.07330
N427        N  0.63715510  0.59262746  0.04711516    -0.27060
N428        N  0.66729917  0.57866279  0.07373499    -0.34910
C429        C  0.65052338  0.55732696  0.06724340     0.01290
C430        C  0.60865541  0.55747836  0.03380983     0.07310
C431        C  0.60122530  0.58019019  0.02184459    -0.05790
H432        H  0.67264922  0.54257394  0.07875922     0.07980
H433        H  0.57564109  0.58687513  0.99229254     0.09180
Cu434      Cu  0.74039283  0.58637602  0.10184203     0.44170
Cu435      Cu  0.65048609  0.62757884  0.03962405     0.41990
Cu436      Cu  0.75648377  0.64320254  0.12121533     0.43880
N437        N  0.81321445  0.59976519  0.11605592    -0.34440
N438        N  0.81863270  0.62172207  0.12280210    -0.28700
C439        C  0.86805475  0.62644071  0.13542375    -0.04800
C440        C  0.89530289  0.60629740  0.13797532     0.07420
C441        C  0.85923887  0.58966087  0.12501763     0.01220
H442        H  0.88130511  0.64291239  0.14831446     0.08870
H443        H  0.86439561  0.57151653  0.12805232     0.07950
N444        N  0.70857939  0.66620341  0.08725700    -0.35890
N445        N  0.67405463  0.66121482  0.05114193    -0.28070
C446        C  0.66438515  0.68021856  0.02346179    -0.03310
C447        C  0.69498955  0.69760764  0.04345435     0.05300
C448        C  0.72115804  0.68812575  0.08452315     0.03390
H449        H  0.64085279  0.68083227  0.98876366     0.08500
H450        H  0.75209808  0.69587409  0.10677698     0.07330
O451        O  0.03385708  0.57390931  0.31497569    -0.72710
O452        O  0.95385029  0.58287539  0.18409758    -0.73690
O453        O  0.06323615  0.57937141  0.21129646    -0.62310
O454        O  0.92487830  0.57814402  0.28725902    -0.70720
O455        O  0.93231141  0.61543514  0.29676443    -0.70270
O456        O  0.06592419  0.61664102  0.22309462    -0.61530
O457        O  0.95949162  0.62018618  0.19468584    -0.74030
O458        O  0.03702718  0.61126608  0.32582700    -0.72810
Cu459      Cu  0.99399111  0.57714623  0.24897301     1.04560
Cu460      Cu  0.99905161  0.61706778  0.26035593     1.04330
C461        C  0.04940054  0.59127659  0.33994716     0.93490
C462        C  0.94015547  0.60295078  0.17185335     0.92630
C463        C  0.08707203  0.59839642  0.20758719     0.84770
C464        C  0.90591509  0.59724402  0.30099630     0.91050
N465        N  0.61501056  0.58991805  0.43712588    -0.27060
N466        N  0.63315625  0.57645222  0.40026719    -0.34910
C467        C  0.62018382  0.55493400  0.41103562     0.01290
C468        C  0.59423448  0.55435766  0.45775063     0.07310
C469        C  0.59110234  0.57688039  0.47295756    -0.05790
H470        H  0.63707287  0.54051523  0.39143893     0.07980
H471        H  0.57844062  0.58299017  0.51040831     0.09180
Cu472      Cu  0.69439225  0.58357650  0.35128228     0.44170
Cu473      Cu  0.63193246  0.62475656  0.44450928     0.41990
Cu474      Cu  0.72363668  0.64072316  0.35038980     0.43880
N475        N  0.76754205  0.59480958  0.33107509    -0.34440
N476        N  0.77713400  0.61673140  0.33152628    -0.28700
C477        C  0.82783496  0.62034859  0.32359168    -0.04800
C478        C  0.85178288  0.59966634  0.31741841     0.07420
C479        C  0.81244465  0.58363265  0.32192825     0.01220
H480        H  0.84585889  0.63694351  0.32208841     0.08870
H481        H  0.81610822  0.56542243  0.31910064     0.07950
N482        N  0.69107828  0.66371115  0.39910056    -0.35890
N483        N  0.65879979  0.65835480  0.43711100    -0.28070
C484        C  0.65361225  0.67669185  0.46806596    -0.03310
C485        C  0.68485238  0.69402033  0.44815382     0.05300
C486        C  0.70772237  0.68505317  0.40459082     0.03390
H487        H  0.63184924  0.67692068  0.50400105     0.08500
H488        H  0.73731982  0.69294019  0.38059749     0.07330
N489        N  0.84556062  0.00006899  0.52312428    -0.27060
N490        N  0.82716416  0.01381911  0.55920935    -0.34910
C491        C  0.84236792  0.03510140  0.54895384     0.01290
C492        C  0.87032247  0.03525717  0.50328625     0.07310
C493        C  0.87186277  0.01267990  0.48813645    -0.05790
H494        H  0.82585546  0.04979377  0.56780178     0.07980
H495        H  0.88527524  0.00635093  0.45114169     0.09180
Cu496      Cu  0.76450750  0.00686402  0.60647167     0.44170
Cu497      Cu  0.82709676  0.96536067  0.51777247     0.41990
Cu498      Cu  0.75155075  0.94948877  0.62641148     0.43880
N499        N  0.69432465  0.99323961  0.62905291    -0.34440
N500        N  0.69031716  0.97117444  0.63534685    -0.28700
C501        C  0.64092972  0.96577196  0.64643818    -0.04800
C502        C  0.61218529  0.98550058  0.64816483     0.07420
C503        C  0.64734518  0.00275258  0.63721821     0.01220
H504        H  0.62770340  0.94882514  0.65591189     0.08870
H505        H  0.63998382  0.02079077  0.63753769     0.07950
N506        N  0.78629586  0.92627438  0.57968916    -0.35890
N507        N  0.80750798  0.93152401  0.53470988    -0.28070
C508        C  0.80929370  0.91255482  0.50559724    -0.03310
C509        C  0.78838452  0.89447413  0.53424454     0.05300
C510        C  0.77512820  0.90417334  0.58126243     0.03390
H511        H  0.82135195  0.91254816  0.46553362     0.08500
H512        H  0.75464210  0.89638443  0.61330306     0.07330
C513        C  0.73321688  0.80165280  0.48054098     0.00800
C514        C  0.74905489  0.78390643  0.51128550     0.00800
O515        O  0.43086744  0.96890531  0.69539285    -0.72710
O516        O  0.54730074  0.96916653  0.79428243    -0.73690
O517        O  0.43757356  0.96931788  0.80169368    -0.62310
O518        O  0.54049226  0.96869722  0.68886674    -0.70720
O519        O  0.54351878  0.00635545  0.68790923    -0.70270
O520        O  0.43447304  0.00694448  0.80061550    -0.61530
O521        O  0.54799209  0.00684425  0.79514338    -0.74030
O522        O  0.42986091  0.00653749  0.69239032    -0.72810
Cu523      Cu  0.48885631  0.96785842  0.74511137     1.04560
Cu524      Cu  0.48882064  0.00813365  0.74397717     1.04330
C525        C  0.41022629  0.98735565  0.68017204     0.93490
C526        C  0.56869963  0.98784228  0.80692177     0.92630
C527        C  0.41729589  0.98783918  0.81679574     0.84770
C528        C  0.56182354  0.98714613  0.67423025     0.91050
C529        C  0.77450070  0.87079503  0.51805464     0.00080
C530        C  0.73765574  0.85864957  0.54816016    -0.11790
C531        C  0.72401378  0.83628925  0.53679618     0.02320
C532        C  0.74626382  0.82550808  0.49374805    -0.00010
C533        C  0.78136138  0.83752964  0.46223747    -0.11730
C534        C  0.79641803  0.85978534  0.47437740     0.02200
H535        H  0.71856293  0.86645874  0.58086981     0.15180
H536        H  0.79840843  0.82915630  0.42891581     0.15180
C537        C  0.83576219  0.87019335  0.44214337     0.36830
C538        C  0.68656083  0.82480127  0.56957770     0.36740
N539        N  0.86744837  0.87816806  0.41575136    -0.43510
N540        N  0.65668561  0.81553945  0.59584947    -0.43510
C541        C  0.69950682  0.71609632  0.47108472     0.00080
C542        C  0.75279923  0.72141481  0.47492465    -0.11790
C543        C  0.76944717  0.74309870  0.48916244     0.02320
C544        C  0.73242206  0.76021566  0.49862038    -0.00010
C545        C  0.67899359  0.75467887  0.49667676    -0.11730
C546        C  0.66237358  0.73277655  0.48338886     0.02200
H547        H  0.78165004  0.70863639  0.46574103     0.15180
H548        H  0.65026794  0.76755506  0.50541422     0.15180
C549        C  0.60721149  0.72815172  0.48022503     0.36830
C550        C  0.82477954  0.74761549  0.49138979     0.36740
N551        N  0.56295920  0.72443881  0.47777821    -0.43510
N552        N  0.86910746  0.75125392  0.49309127    -0.43510
C553        C  0.70802220  0.71984403  0.02031968     0.00080
C554        C  0.66817508  0.73521684  0.00856685    -0.11790
C555        C  0.68020175  0.75765332  0.99470872     0.02320
C556        C  0.73274299  0.76498997  0.99417890    -0.00010
C557        C  0.77236746  0.74905833  0.00127468    -0.11730
C558        C  0.76060702  0.72665963  0.01397360     0.02200
H559        H  0.62780649  0.72988303  0.01152844     0.15180
H560        H  0.81280570  0.75431369  0.99803989     0.15180
C561        C  0.80344385  0.71099405  0.01951923     0.36830
C562        C  0.63839238  0.77254271  0.97955488     0.36740
N563        N  0.83781823  0.69848183  0.02390297    -0.43510
N564        N  0.60486305  0.78441146  0.96700127    -0.43510
C565        C  0.74400741  0.83026984  0.00069657     0.00080
C566        C  0.72354362  0.83861297  0.95434121    -0.11790
C567        C  0.73239932  0.86099251  0.93883097     0.02320
C568        C  0.76508632  0.87537063  0.96888210    -0.00010
C569        C  0.78354671  0.86711752  0.01660439    -0.11730
C570        C  0.77196063  0.84506988  0.03333558     0.02200
H571        H  0.69929205  0.82764292  0.93075208     0.15180
H572        H  0.80740623  0.87780408  0.04107266     0.15180
C573        C  0.79022093  0.83794357  0.08365463     0.36830
C574        C  0.70404456  0.86862656  0.89389425     0.36740
N575        N  0.80485123  0.83238488  0.12409622    -0.43510
N576        N  0.68045700  0.87434352  0.85801139    -0.43510
C577        C  0.19888106  0.86907808  0.99382913     0.00080
C578        C  0.15861964  0.85320126  0.00013995    -0.11790
C579        C  0.16994247  0.83034461  0.01021286     0.02320
C580        C  0.22248053  0.82313611  0.01323989    -0.00010
C581        C  0.26229455  0.83940477  0.01046237    -0.11730
C582        C  0.25107819  0.86213539  0.00092614     0.02200
H583        H  0.11846493  0.85852675  0.99575962     0.15180
H584        H  0.30257971  0.83421381  0.01474152     0.15180
C585        C  0.29404423  0.87801954  0.99899283     0.36830
C586        C  0.12705908  0.81497369  0.01944117     0.36740
N587        N  0.32851166  0.89070962  0.99746610    -0.43510
N588        N  0.09231141  0.80286734  0.02717097    -0.43510
C589        C  0.27092284  0.71363346  0.02396192     0.00080
C590        C  0.23199288  0.72444337  0.05349660    -0.11790
C591        C  0.21582864  0.74646999  0.04224817     0.02320
C592        C  0.23788836  0.75815886  0.00001070    -0.00010
C593        C  0.27463178  0.74718480  0.96861986    -0.11730
C594        C  0.29198063  0.72526525  0.98063987     0.02200
H595        H  0.21374352  0.71575737  0.08580163     0.15180
H596        H  0.29151525  0.75621475  0.93595911     0.15180
C597        C  0.33325741  0.71587080  0.94942754     0.36830
C598        C  0.17643272  0.75670198  0.07460368     0.36740
N599        N  0.36646668  0.70855866  0.92413442    -0.43510
N600        N  0.14498467  0.76483686  0.10076181    -0.43510
C601        C  0.24974806  0.76037900  0.50830892     0.00080
C602        C  0.23034528  0.74950541  0.46408423    -0.11790
C603        C  0.23823295  0.72631350  0.45647345     0.02320
C604        C  0.26570051  0.71350569  0.49375380    -0.00010
C605        C  0.28743446  0.72453859  0.53657683    -0.11730
C606        C  0.27934829  0.74776504  0.54434490     0.02200
H607        H  0.20766765  0.75905597  0.43618815     0.15180
H608        H  0.30846779  0.71477981  0.56536083     0.15180
C609        C  0.30118875  0.75811922  0.59001114     0.36830
C610        C  0.21762980  0.71602731  0.41010257     0.36740
N611        N  0.31888620  0.76616561  0.62685335    -0.43510
N612        N  0.20124235  0.70782942  0.37283574    -0.43510
C613        C  0.19496498  0.86977900  0.50888849     0.00080
C614        C  0.24827317  0.86523027  0.50247372    -0.11790
C615        C  0.26599117  0.84326438  0.49313755     0.02320
C616        C  0.23004930  0.82513124  0.49084107    -0.00010
C617        C  0.17635625  0.82985715  0.49476542    -0.11730
C618        C  0.15866258  0.85200067  0.50368969     0.02200
H619        H  0.27643315  0.87886208  0.50648713     0.15180
H620        H  0.14830326  0.81617841  0.49129513     0.15180
C621        C  0.10351554  0.85588515  0.50999748     0.36830
C622        C  0.32154394  0.83966833  0.48908680     0.36740
N623        N  0.05928246  0.85901822  0.51503661    -0.43510
N624        N  0.36606669  0.83683348  0.48595604    -0.43510
C625        C  0.78253960  0.78726724  0.55907161     0.00080
C626        C  0.82846531  0.80051681  0.55704510    -0.11790
C627        C  0.85934263  0.80421891  0.60142557     0.02320
C628        C  0.84634352  0.79351742  0.64890130    -0.00010
C629        C  0.80190738  0.77952874  0.64996251    -0.11730
C630        C  0.76979042  0.77670512  0.60672941     0.02200
H631        H  0.84038961  0.80810550  0.52066795     0.15180
H632        H  0.79170722  0.77072051  0.68527676     0.15180
C633        C  0.72309329  0.76329539  0.61361897     0.36830
C634        C  0.90256519  0.81984142  0.59744735     0.36740
N635        N  0.68589533  0.75248676  0.62002693    -0.43510
N636        N  0.93707122  0.83244968  0.59411236    -0.43510
C637        C  0.84239508  0.79436905  0.84234766     0.00080
C638        C  0.85971841  0.80471471  0.88842182    -0.11790
C639        C  0.83113851  0.80282376  0.93496421     0.02320
C640        C  0.78149142  0.79225081  0.93531415    -0.00010
C641        C  0.76453570  0.78181401  0.88956294    -0.11730
C642        C  0.79515560  0.78178726  0.84459456     0.02200
H643        H  0.89652757  0.81375510  0.88869705     0.15180
H644        H  0.72800409  0.77251265  0.88970407     0.15180
C645        C  0.77921476  0.76658165  0.80385601     0.36830
C646        C  0.85632454  0.80973653  0.98223776     0.36740
N647        N  0.76582030  0.75382939  0.77259683    -0.43510
N648        N  0.87785781  0.81491684  0.01974093    -0.43510
C649        C  0.13165594  0.78978066  0.84799235     0.00080
C650        C  0.17871038  0.80193893  0.85392894    -0.11790
C651        C  0.20938827  0.79983183  0.89880965     0.02320
C652        C  0.19242546  0.78596648  0.94027834    -0.00010
C653        C  0.14566312  0.77374081  0.93432213    -0.11730
C654        C  0.11557302  0.77539623  0.88907809     0.02200
H655        H  0.19228523  0.81283248  0.82277857     0.15180
H656        H  0.13279348  0.76252892  0.96517980     0.15180
C657        C  0.07001113  0.76108461  0.88504675     0.36830
C658        C  0.25973950  0.81078915  0.89956784     0.36740
N659        N  0.03347110  0.74961193  0.88200749    -0.43510
N660        N  0.30023433  0.81949291  0.89965908    -0.43510
C661        C  0.13521310  0.79161355  0.65343928     0.00080
C662        C  0.18174022  0.80428219  0.64957290    -0.11790
C663        C  0.21452081  0.80267974  0.60600071     0.02320
C664        C  0.20060352  0.78850980  0.56414345    -0.00010
C665        C  0.15366141  0.77620822  0.56752642    -0.11730
C666        C  0.12135651  0.77747196  0.61140502     0.02200
H667        H  0.19322609  0.81515538  0.68140261     0.15180
H668        H  0.14271775  0.76506528  0.53598802     0.15180
C669        C  0.07594129  0.76296976  0.61327464     0.36830
C670        C  0.26364944  0.81462953  0.60699933     0.36740
N671        N  0.03953835  0.75134289  0.61463101    -0.43510
N672        N  0.30312173  0.82414718  0.60863165    -0.43510
C673        C  0.63373399  0.79561661  0.34485317     0.00080
C674        C  0.68337088  0.78537821  0.34573851    -0.11790
C675        C  0.71632508  0.78718729  0.38888288     0.02320
C676        C  0.69917160  0.79851007  0.43379555    -0.00010
C677        C  0.64933826  0.80835023  0.43361041    -0.11730
C678        C  0.61693747  0.80723537  0.38985493     0.02200
H679        H  0.69727151  0.77637828  0.31186936     0.15180
H680        H  0.63603882  0.81741818  0.46761708     0.15180
C681        C  0.56814468  0.81934415  0.39156904     0.36830
C682        C  0.76877053  0.77862772  0.38460329     0.36740
N683        N  0.52902789  0.82904389  0.39318585    -0.43510
N684        N  0.81092151  0.77193657  0.38043642    -0.43510
C685        C  0.63379547  0.79869607  0.15133108     0.00080
C686        C  0.68155133  0.78699138  0.14810251    -0.11790
C687        C  0.71456428  0.78920593  0.10492225     0.02320
C688        C  0.69928949  0.80265103  0.06227529    -0.00010
C689        C  0.65151989  0.81425442  0.06526245    -0.11730
C690        C  0.61908502  0.81253478  0.10901314     0.02200
H691        H  0.69391661  0.77643573  0.18023051     0.15180
H692        H  0.63970157  0.82500504  0.03326374     0.15180
C693        C  0.57248443  0.82617220  0.11029239     0.36830
C694        C  0.76545350  0.77890336  0.10733009     0.36740
N695        N  0.53511597  0.83710658  0.11113147    -0.43510
N696        N  0.80636633  0.77077056  0.10990788    -0.43510
C697        C  0.34182923  0.78855495  0.15499823     0.00080
C698        C  0.29488611  0.80073666  0.15982230    -0.11790
C699        C  0.26043584  0.80345159  0.11829775     0.02320
C700        C  0.27305225  0.79482719  0.06879436    -0.00010
C701        C  0.32095375  0.78338477  0.06313756    -0.11730
C702        C  0.35434574  0.77960927  0.10563703     0.02200
H703        H  0.28462147  0.80831597  0.19667092     0.15180
H704        H  0.33259073  0.77736627  0.02526780     0.15180
C705        C  0.39992416  0.76578940  0.09753636     0.36830
C706        C  0.21182414  0.81489737  0.12847221     0.36740
N707        N  0.43637645  0.75466216  0.09078948    -0.43510
N708        N  0.17307488  0.82409004  0.13748094    -0.43510
C709        C  0.34563842  0.78983473  0.34629922     0.00080
C710        C  0.29828994  0.80176206  0.34296847    -0.11790
C711        C  0.26581800  0.80477167  0.38598957     0.02320
C712        C  0.28105841  0.79674192  0.43532772    -0.00010
C713        C  0.32908287  0.78528476  0.43928276    -0.11730
C714        C  0.36061246  0.78133192  0.39543935     0.02200
H715        H  0.28612629  0.80885591  0.30614649     0.15180
H716        H  0.34213371  0.77937400  0.47685144     0.15180
C717        C  0.40692292  0.76780969  0.40197232     0.36830
C718        C  0.21624041  0.81568274  0.37750007     0.36740
N719        N  0.44400530  0.75694372  0.40741283    -0.43510
N720        N  0.17662027  0.82441627  0.37000873    -0.43510
C721        C  0.73655704  0.26218795  0.50447416     0.00080
C722        C  0.78909982  0.25544553  0.50711841    -0.11790
C723        C  0.80372745  0.23312504  0.49532653     0.02320
C724        C  0.76525919  0.21719496  0.48119821    -0.00010
C725        C  0.71257579  0.22374299  0.48192038    -0.11730
C726        C  0.69805372  0.24593280  0.49300431     0.02200
H727        H  0.81874796  0.26781154  0.51706871     0.15180
H728        H  0.68236996  0.21157506  0.47235572     0.15180
C729        C  0.64353539  0.25179281  0.48945488     0.36830
C730        C  0.85834459  0.22738809  0.49532859     0.36740
N731        N  0.59976336  0.25628597  0.48638021    -0.43510
N732        N  0.90218530  0.22281542  0.49539667    -0.43510
C733        C  0.73085447  0.32758163  0.49512380     0.00080
C734        C  0.74582279  0.33611677  0.54331494    -0.11790
C735        C  0.73524740  0.35849159  0.55732216     0.02320
C736        C  0.70590808  0.37273768  0.52367754    -0.00010
C737        C  0.69315452  0.36432006  0.47427426    -0.11730
C738        C  0.70664723  0.34225856  0.45933770     0.02200
H739        H  0.76714090  0.32525694  0.56977894     0.15180
H740        H  0.67200075  0.37482437  0.44711305     0.15180
C741        C  0.69322174  0.33480409  0.40781380     0.36830
C742        C  0.75840880  0.36613185  0.60507126     0.36740
N743        N  0.68259674  0.32886246  0.36646551    -0.43510
N744        N  0.77794798  0.37175828  0.64334205    -0.43510
C745        C  0.25654130  0.36816844  0.53625797     0.00080
C746        C  0.25529045  0.36399248  0.48295944    -0.11790
C747        C  0.24010256  0.34285073  0.46326270     0.02320
C748        C  0.22609162  0.32486083  0.49756180    -0.00010
C749        C  0.22244256  0.33003129  0.55062468    -0.11730
C750        C  0.24011873  0.35072334  0.57033077     0.02200
H751        H  0.26544616  0.37750144  0.45618311     0.15180
H752        H  0.20799440  0.31736691  0.57755804     0.15180
C753        C  0.24412637  0.35276718  0.62588141     0.36830
C754        C  0.23815482  0.34122989  0.40764789     0.36740
N755        N  0.24763948  0.35420485  0.67042545    -0.43510
N756        N  0.23653758  0.34132176  0.36283623    -0.43510
C757        C  0.20287102  0.21163445  0.48142206     0.00080
C758        C  0.25256575  0.22070528  0.46988982    -0.11790
C759        C  0.26369450  0.24373620  0.47640190     0.02320
C760        C  0.22428467  0.25862297  0.49261904    -0.00010
C761        C  0.17359025  0.25013111  0.49987583    -0.11730
C762        C  0.16274345  0.22688313  0.49563516     0.02200
H763        H  0.28374368  0.20977682  0.45699087     0.15180
H764        H  0.14330607  0.26143408  0.51339204     0.15180
C765        C  0.11129455  0.21936264  0.51054424     0.36830
C766        C  0.31633683  0.25159899  0.46749239     0.36740
N767        N  0.06986012  0.21371203  0.52300290    -0.43510
N768        N  0.35857379  0.25787086  0.46052193    -0.43510
C769        C  0.73276271  0.26549522  0.00124380     0.00080
C770        C  0.77013386  0.25327967  0.97316592    -0.11790
C771        C  0.78778038  0.23202474  0.99049080     0.02320
C772        C  0.76453701  0.22167521  0.03458372    -0.00010
C773        C  0.72617357  0.23406317  0.06156285    -0.11730
C774        C  0.71104187  0.25568681  0.04609632     0.02200
H775        H  0.78711282  0.26083041  0.93868351     0.15180
H776        H  0.70663985  0.22704262  0.09501260     0.15180
C777        C  0.67080796  0.26680432  0.07573360     0.36830
C778        C  0.83178295  0.22228386  0.96391644     0.36740
N779        N  0.63851437  0.27513499  0.10048076    -0.43510
N780        N  0.86766078  0.21494630  0.94255849    -0.43510
C781        C  0.71568214  0.33051907  0.00408404     0.00080
C782        C  0.75381501  0.34640432  0.98966713    -0.11790
C783        C  0.74022457  0.36869647  0.97766326     0.02320
C784        C  0.68778112  0.37569131  0.98224359    -0.00010
C785        C  0.65011828  0.36021822  0.99966265    -0.11730
C786        C  0.66347937  0.33765396  0.01004740     0.02200
H787        H  0.79408289  0.34109663  0.98589425     0.15180
H788        H  0.60982464  0.36552430  0.00294238     0.15180
C789        C  0.62266691  0.32227621  0.02583892     0.36830
C790        C  0.78084817  0.38395660  0.96031034     0.36740
N791        N  0.58882658  0.31038653  0.03798749    -0.43510
N792        N  0.81352104  0.39605042  0.94611410    -0.43510
C793        C  0.23658792  0.32373528  0.00438674     0.00080
C794        C  0.28933257  0.33043651  0.00279282    -0.11790
C795        C  0.30338030  0.35282894  0.99044854     0.02320
C796        C  0.26420816  0.36882561  0.97953896    -0.00010
C797        C  0.21161722  0.36229047  0.98401840    -0.11730
C798        C  0.19759446  0.34004777  0.99587410     0.02200
H799        H  0.31947717  0.31799505  0.01000353     0.15180
H800        H  0.18102187  0.37450076  0.97658839     0.15180
C801        C  0.14288750  0.33413599  0.99561448     0.36830
C802        C  0.35793129  0.35859290  0.98645858     0.36740
N803        N  0.09902945  0.32947244  0.99517099    -0.43510
N804        N  0.40171910  0.36319376  0.98333916    -0.43510
C805        C  0.22298338  0.25892476  0.98715318     0.00080
C806        C  0.23790733  0.24797689  0.03304585    -0.11790
C807        C  0.22833057  0.22487801  0.04024331     0.02320
C808        C  0.20363611  0.21222469  0.00088565    -0.00010
C809        C  0.18625890  0.22331681  0.95614648    -0.11730
C810        C  0.19594543  0.24649626  0.94887771     0.02200
H811        H  0.25847075  0.25739812  0.06272523     0.15180
H812        H  0.16714301  0.21366980  0.92590045     0.15180
C813        C  0.17796650  0.25710658  0.90177822     0.36830
C814        C  0.24417459  0.21456197  0.08846827     0.36740
N815        N  0.16357685  0.26557250  0.86396091    -0.43510
N816        N  0.25676886  0.20633744  0.12718960    -0.43510
C817        C  0.83700746  0.29138391  0.34531937     0.00080
C818        C  0.85422405  0.30611265  0.38449741    -0.11790
C819        C  0.82508581  0.30944888  0.42993392     0.02320
C820        C  0.77637754  0.29846182  0.43676920    -0.00010
C821        C  0.75999366  0.28311117  0.39839486    -0.11730
C822        C  0.79038766  0.27898469  0.35403547     0.02200
H823        H  0.89003910  0.31562947  0.37905596     0.15180
H824        H  0.72302669  0.27439308  0.40282697     0.15180
C825        C  0.77353848  0.26140491  0.31901823     0.36830
C826        C  0.84674691  0.32410745  0.46909758     0.36740
N827        N  0.76012409  0.24722896  0.29112040    -0.43510
N828        N  0.86460246  0.33583323  0.50028723    -0.43510
C829        C  0.83036688  0.30192796  0.15223242     0.00080
C830        C  0.84918954  0.29421487  0.10399733    -0.11790
C831        C  0.81942713  0.29635778  0.05846651     0.02320
C832        C  0.76756234  0.30433394  0.06096171    -0.00010
C833        C  0.74938745  0.31270557  0.10846264    -0.11730
C834        C  0.78060735  0.31250445  0.15295323     0.02200
H835        H  0.88762914  0.28677528  0.10136146     0.15180
H836        H  0.71091551  0.32021436  0.11042106     0.15180
C837        C  0.76152240  0.32483327  0.19735861     0.36830
C838        C  0.84475823  0.29228379  0.00945216     0.36740
N839        N  0.74607361  0.33472769  0.23284002    -0.43510
N840        N  0.86578347  0.28942377  0.97031337    -0.43510
C841        C  0.12149545  0.28998331  0.34263295     0.00080
C842        C  0.17676803  0.29085914  0.33992225    -0.11790
C843        C  0.20804772  0.29223769  0.38433739     0.02320
C844        C  0.18513207  0.29622239  0.43296439    -0.00010
C845        C  0.13068811  0.29513306  0.43691709    -0.11730
C846        C  0.09927598  0.29048376  0.39344303     0.02200
H847        H  0.19701611  0.29086735  0.30327455     0.15180
H848        H  0.11276474  0.29679754  0.47481281     0.15180
C849        C  0.04578362  0.28436908  0.40401372     0.36830
C850        C  0.26400038  0.29094827  0.37843189     0.36740
N851        N  0.00319780  0.27928152  0.41353448    -0.43510
N852        N  0.30877607  0.29013113  0.37327058    -0.43510
C853        C  0.12235643  0.28800884  0.14894938     0.00080
C854        C  0.17032577  0.29958513  0.15285576    -0.11790
C855        C  0.20355220  0.30251553  0.11024107     0.02320
C856        C  0.18895239  0.29451873  0.06078656    -0.00010
C857        C  0.14097974  0.28290145  0.05639614    -0.11730
C858        C  0.10831975  0.27925227  0.09978908     0.02200
H859        H  0.18211129  0.30670081  0.18973638     0.15180
H860        H  0.12866960  0.27679944  0.01877598     0.15180
C861        C  0.06177155  0.26583720  0.09278567     0.36830
C862        C  0.25315416  0.31346025  0.11910107     0.36740
N863        N  0.02450083  0.25504575  0.08692854    -0.43510
N864        N  0.29282399  0.32219668  0.12686489    -0.43510
C865        C  0.62574110  0.29445551  0.65257950     0.00080
C866        C  0.61065365  0.30484997  0.60579385    -0.11790
C867        C  0.64015255  0.30225286  0.56006245     0.02320
C868        C  0.68814563  0.29038778  0.56108441    -0.00010
C869        C  0.70265442  0.27979858  0.60762213    -0.11730
C870        C  0.67146162  0.28096906  0.65211817     0.02200
H871        H  0.57506878  0.31467272  0.60449764     0.15180
H872        H  0.73800187  0.26978560  0.60879450     0.15180
C873        C  0.68572466  0.26671254  0.69539213     0.36830
C874        C  0.61758289  0.31016253  0.51224756     0.36740
N875        N  0.69702140  0.25523189  0.72997892    -0.43510
N876        N  0.59818442  0.31624888  0.47427701    -0.43510
C877        C  0.61985287  0.29753465  0.84517873     0.00080
C878        C  0.61458981  0.27812437  0.87603773    -0.11790
C879        C  0.64571590  0.27466909  0.92014733     0.02320
C880        C  0.68394336  0.29106721  0.93508867    -0.00010
C881        C  0.69039783  0.30997218  0.90189067    -0.11730
C882        C  0.65766372  0.31377135  0.85916572     0.02200
H883        H  0.58676416  0.26518162  0.86469966     0.15180
H884        H  0.72160946  0.32190191  0.90843008     0.15180
C885        C  0.66247248  0.33490192  0.83120418     0.36830
C886        C  0.63772474  0.25350134  0.94712559     0.36740
N887        N  0.66571290  0.35196298  0.80921734    -0.43510
N888        N  0.63086221  0.23613310  0.96697850    -0.43510
C889        C  0.33505058  0.29040904  0.64621830     0.00080
C890        C  0.29114085  0.27611893  0.64670721    -0.11790
C891        C  0.25884318  0.27368957  0.60338246     0.02320
C892        C  0.27121160  0.28474644  0.55603625    -0.00010
C893        C  0.31670324  0.29821515  0.55450032    -0.11730
C894        C  0.34752602  0.30165042  0.59908777     0.02200
H895        H  0.28102476  0.26701148  0.68188033     0.15180
H896        H  0.32714757  0.30676534  0.51870245     0.15180
C897        C  0.38970211  0.31783068  0.59587006     0.36830
C898        C  0.21152848  0.26078347  0.61071839     0.36740
N899        N  0.42339390  0.33087335  0.59313853    -0.43510
N900        N  0.17384687  0.25046008  0.61842635    -0.43510
C901        C  0.33266820  0.29589431  0.84081961     0.00080
C902        C  0.34915110  0.28055491  0.87917412    -0.11790
C903        C  0.32001615  0.27688917  0.92460140     0.02320
C904        C  0.27221823  0.28831701  0.93259231    -0.00010
C905        C  0.25629759  0.30412541  0.89491065    -0.11730
C906        C  0.28633897  0.30829147  0.85010247     0.02200
H907        H  0.38460842  0.27095342  0.87321673     0.15180
H908        H  0.21995830  0.31313789  0.90024858     0.15180
C909        C  0.26953878  0.32596093  0.81529266     0.36830
C910        C  0.34080503  0.26147605  0.96276617     0.36740
N911        N  0.25606170  0.34025709  0.78770396    -0.43510
N912        N  0.35789118  0.24913943  0.99318317    -0.43510
loop_ 
_geom_bond_atom_site_label_1 
_geom_bond_atom_site_label_2 
_geom_bond_distance 
_geom_bond_site_symmetry_2 
_ccdc_geom_bond_type 
C1            C2   1.410       .  A
C1            C6   1.403       .  A
C1          C901   1.508       .  S
C2            C3   1.423       .  A
C2            H7   1.076       .  S
C3            C4   1.425       .  A
C3           C12   1.535       .  S
C4            C5   1.413       .  A
C4            H8   1.075       .  S
C5            C6   1.409       .  A
C5          C889   1.511       .  S
C6            H9   1.082       .  S
C10          C11   1.408       .  A
C10          C15   1.397       .  A
C10         C877   1.497       .  S
C11          C12   1.425       .  A
C11          H16   1.076       .  S
C12          C13   1.426       .  A
C13          C14   1.414       .  A
C13          H17   1.075       .  S
C14          C15   1.402       .  A
C14         C865   1.508       .  S
C15          H18   1.082       .  S
C19          C20   1.418       .  A
C19          C24   1.414       .  A
C19         C841   1.533       .  S
C20          C21   1.419       .  A
C20          H25   1.074       .  S
C21          C22   1.418       .  A
C21          C30   1.524   1_455  S
C22          C23   1.410       .  A
C22          H26   1.077       .  S
C23          C24   1.407       .  A
C23         C853   1.512       .  S
C24          H27   1.077       .  S
C28          C29   1.407       .  A
C28          C33   1.401       .  A
C28         C817   1.504       .  S
C29          C30   1.419       .  A
C29          H34   1.079       .  S
C30          C31   1.421       .  A
C31          C32   1.417       .  A
C31          H35   1.078       .  S
C32          C33   1.407       .  A
C32         C829   1.513       .  S
C33          H36   1.077       .  S
N37          N38   1.323       .  A
N37          C41   1.346       .  A
N37         Cu45   2.092       .  S
N38          C39   1.341       .  A
N38         Cu44   2.060       .  S
C39          C40   1.380       .  A
C39          H42   1.082       .  S
C40          C41   1.389       .  A
C40         C378   1.468   1_554  S
C41          H43   1.082   1_554  S
Cu44         N47   2.065       .  S
Cu45         N55   2.089       .  S
Cu46         N48   2.043       .  S
Cu46         N54   2.043       .  S
N47          N48   1.319       .  A
N47          C51   1.344       .  A
N48          C49   1.339       .  A
C49          C50   1.377       .  A
C49          H52   1.082       .  S
C50          C51   1.382       .  A
C50         C147   1.452       .  S
C51          H53   1.082       .  S
N54          N55   1.321       .  A
N54          C58   1.338       .  A
N55          C56   1.351   1_554  A
C56          C57   1.389   1_556  A
C56          H59   1.081       .  S
C57          C58   1.376       .  A
C57         C808   1.475       .  S
C58          H60   1.081       .  S
C61          C62   1.375   1_556  D
C61         C805   1.492       .  S
C61         C904   1.516       .  S
C62         C793   1.492       .  S
C62         C856   1.517       .  S
N63          N64   1.326       .  A
N63          C67   1.347       .  A
N63         Cu71   2.104       .  S
N64          C65   1.340       .  A
N64         Cu70   2.062       .  S
C65          C66   1.377       .  A
C65          H68   1.082       .  S
C66          C67   1.388       .  A
C66         C354   1.466   1_556  S
C67          H69   1.082   1_556  S
Cu70         N73   2.059       .  S
Cu71         N81   2.099       .  S
Cu72         N74   2.029       .  S
Cu72         N80   2.023       .  S
N73          N74   1.314       .  A
N73          C77   1.348       .  A
N74          C75   1.334       .  A
C75          C76   1.379       .  A
C75          H78   1.082       .  S
C76          C77   1.389       .  A
C76         C263   1.458       .  S
C77          H79   1.082       .  S
N80          N81   1.318       .  A
N80          C84   1.333       .  A
N81          C82   1.354       .  A
C82          C83   1.395       .  A
C82          H85   1.082   1_556  S
C83          C84   1.376       .  A
C83         C796   1.481       .  S
C84          H86   1.082       .  S
C87          C88   1.384   1_556  D
C87         C769   1.494   1_556  S
C87         C880   1.533       .  S
C88         C781   1.488       .  S
C88         C832   1.510       .  S
N89          N90   1.324       .  A
N89          C93   1.346       .  A
N89         Cu97   2.100       .  S
N90          C91   1.340       .  A
N90         Cu96   2.052       .  S
C91          C92   1.378       .  A
C91          H94   1.082       .  S
C92          C93   1.389       .  A
C92         C406   1.466   1_554  S
C93          H95   1.082   1_554  S
Cu96         N99   2.051       .  S
Cu97        N107   2.096       .  S
Cu98        N100   2.046       .  S
Cu98        N106   2.041       .  S
N99         N100   1.316       .  A
N99         C103   1.345       .  A
N100        C101   1.338       .  A
C101        C102   1.382       .  A
C101        H104   1.082       .  S
C102        C103   1.384       .  A
C102        C150   1.459       .  S
C103        H105   1.082       .  S
N106        N107   1.317       .  A
N106        C110   1.334       .  A
N107        C108   1.351       .  A
C108        C109   1.401       .  A
C108        H111   1.078   1_554  S
C109        C110   1.388       .  A
C109        C772   1.504       .  S
C110        H112   1.079       .  S
N113        N114   1.324       .  A
N113        C117   1.347   1_556  A
N113       Cu121   2.103       .  S
N114        C115   1.339       .  A
N114       Cu120   2.053       .  S
C115        C116   1.378       .  A
C115        H118   1.083       .  S
C116        C117   1.389   1_556  A
C116        C430   1.466   1_556  S
C117        H119   1.082       .  S
Cu120       N123   2.051       .  S
Cu121       N131   2.100       .  S
Cu122       N124   2.033       .  S
Cu122       N130   2.029       .  S
N123        N124   1.316       .  A
N123        C127   1.348       .  A
N124        C125   1.334       .  A
C125        C126   1.378       .  A
C125        H128   1.082       .  S
C126        C127   1.385       .  A
C126        C262   1.456       .  S
C127        H129   1.082       .  S
N130        N131   1.321       .  A
N130        C134   1.337       .  A
N131        C132   1.351       .  A
C132        C133   1.390       .  A
C132        H135   1.082   1_556  S
C133        C134   1.374       .  A
C133        C784   1.474       .  S
C134        H136   1.082       .  S
O137       Cu145   2.007       .  S
O137        C147   1.276       .  A
O138       Cu145   2.005       .  S
O138        C148   1.277       .  A
O139       Cu145   2.010       .  S
O139        C149   1.277       .  A
O140       Cu145   2.013       .  S
O140        C150   1.279       .  A
O141       Cu146   1.972       .  S
O141        C150   1.274       .  A
O142       Cu146   1.975       .  S
O142        C149   1.273       .  A
O143       Cu146   1.971       .  S
O143        C148   1.275       .  A
O144       Cu146   1.981       .  S
O144        C147   1.274       .  A
Cu145      Cu146   2.381       .  S
C148        C216   1.456       .  S
C149        C164   1.452       .  S
N151        N152   1.322       .  A
N151        C155   1.347       .  A
N151       Cu159   2.094       .  S
N152        C153   1.341       .  A
N152       Cu158   2.053       .  S
C153        C154   1.380       .  A
C153        H156   1.083       .  S
C154        C155   1.390       .  A
C154        C304   1.470       .  S
C155        H157   1.082       .  S
Cu158       N161   2.061       .  S
Cu159       N169   2.091       .  S
Cu160       N162   2.054       .  S
Cu160       N168   2.053       .  S
N161        N162   1.321       .  A
N161        C165   1.343       .  A
N162        C163   1.339       .  A
C163        C164   1.380       .  A
C163        H166   1.082       .  S
C164        C165   1.381       .  A
C165        H167   1.082       .  S
N168        N169   1.318       .  A
N168        C172   1.339       .  A
N169        C170   1.350       .  A
C170        C171   1.398       .  A
C170        H173   1.078       .  S
C171        C172   1.387       .  A
C171        C757   1.499       .  S
C172        H174   1.080       .  S
N175        N176   1.326       .  A
N175        C179   1.350       .  A
N175       Cu183   2.113       .  S
N176        C177   1.339       .  A
N176       Cu182   2.063       .  S
C177        C178   1.378       .  A
C177        H180   1.082       .  S
C178        C179   1.391       .  A
C178        C330   1.469       .  S
C179        H181   1.082       .  S
Cu182       N185   2.058       .  S
Cu183       N193   2.110       .  S
Cu184       N186   2.026       .  S
Cu184       N192   2.021       .  S
N185        N186   1.315       .  A
N185        C189   1.349       .  A
N186        C187   1.333       .  A
C187        C188   1.377       .  A
C187        H190   1.082       .  S
C188        C189   1.388       .  A
C188        C261   1.457       .  S
C189        H191   1.082       .  S
N192        N193   1.318       .  A
N192        C196   1.335       .  A
N193        C194   1.352       .  A
C194        C195   1.399       .  A
C194        H197   1.082       .  S
C195        C196   1.378       .  A
C195        C745   1.490       .  S
C196        H198   1.081       .  S
C199        C200   1.384       .  D
C199        C760   1.497       .  S
C199        C892   1.520       .  S
C200        C748   1.517       .  S
C200        C844   1.506       .  S
C201        C202   1.377       .  D
C201        C721   1.492       .  S
C201        C868   1.514       .  S
C202        C733   1.494       .  S
C202        C820   1.514       .  S
N203        N204   1.325       .  A
N203        C207   1.348       .  A
N203       Cu211   2.108       .  S
N204        C205   1.339       .  A
N204       Cu210   2.059       .  S
C205        C206   1.378       .  A
C205        H208   1.082       .  S
C206        C207   1.390       .  A
C206        C492   1.467       .  S
C207        H209   1.082       .  S
Cu210       N213   2.057       .  S
Cu211       N221   2.103       .  S
Cu212       N214   2.027       .  S
Cu212       N220   2.022       .  S
N213        N214   1.314       .  A
N213        C217   1.346       .  A
N214        C215   1.335       .  A
C215        C216   1.379       .  A
C215        H218   1.082       .  S
C216        C217   1.388       .  A
C217        H219   1.082       .  S
N220        N221   1.319       .  A
N220        C224   1.332       .  A
N221        C222   1.354       .  A
C222        C223   1.396       .  A
C222        H225   1.081       .  S
C223        C224   1.375       .  A
C223        C724   1.483       .  S
C224        H226   1.082       .  S
N227        N228   1.324       .  A
N227        C231   1.347       .  A
N227       Cu235   2.107       .  S
N228        C229   1.339       .  A
N228       Cu234   2.047       .  S
C229        C230   1.377       .  A
C229        H232   1.082       .  S
C230        C231   1.390       .  A
C230        C468   1.468       .  S
C231        H233   1.082       .  S
Cu234       N237   2.043       .  S
Cu235       N245   2.104       .  S
Cu236       N238   2.047       .  S
Cu236       N244   2.036       .  S
N237        N238   1.316       .  A
N237        C241   1.346       .  A
N238        C239   1.336       .  A
C239        C240   1.381       .  A
C239        H242   1.082       .  S
C240        C241   1.384       .  A
C240        C264   1.457       .  S
C241        H243   1.082       .  S
N244        N245   1.318       .  A
N244        C248   1.336       .  A
N245        C246   1.351       .  A
C246        C247   1.400       .  A
C246        H249   1.082       .  S
C247        C248   1.385       .  A
C247        C736   1.501       .  S
C248        H250   1.076       .  S
O251       Cu259   2.015   1_455  S
O251        C261   1.278       .  A
O252       Cu259   2.015       .  S
O252        C262   1.278       .  A
O253       Cu259   2.016   1_455  S
O253        C263   1.278       .  A
O254       Cu259   2.013       .  S
O254        C264   1.278       .  A
O255       Cu260   1.964       .  S
O255        C264   1.273       .  A
O256       Cu260   1.963   1_455  S
O256        C263   1.273       .  A
O257       Cu260   1.959       .  S
O257        C262   1.273       .  A
O258       Cu260   1.964   1_455  S
O258        C261   1.274       .  A
Cu259      Cu260   2.378       .  S
C265        C266   1.409       .  A
C265        C270   1.402       .  A
C265        C709   1.508       .  S
C266        C267   1.423       .  A
C266        H271   1.077       .  S
C267        C268   1.426       .  A
C267        C276   1.531       .  S
C268        C269   1.413       .  A
C268        H272   1.074       .  S
C269        C270   1.403       .  A
C269        C697   1.511       .  S
C270        H273   1.083       .  S
C274        C275   1.411       .  A
C274        C279   1.402       .  A
C274        C673   1.506       .  S
C275        C276   1.423       .  A
C275        H280   1.077       .  S
C276        C277   1.423       .  A
C277        C278   1.412       .  A
C277        H281   1.075       .  S
C278        C279   1.401       .  A
C278        C685   1.503       .  S
C279        H282   1.083       .  S
C283        C284   1.412       .  A
C283        C288   1.403       .  A
C283        C649   1.507       .  S
C284        C285   1.423       .  A
C284        H289   1.075       .  S
C285        C286   1.422       .  A
C285        C294   1.534   1_455  S
C286        C287   1.411       .  A
C286        H290   1.076       .  S
C287        C288   1.403       .  A
C287        C661   1.504       .  S
C288        H291   1.083       .  S
C292        C293   1.412       .  A
C292        C297   1.402       .  A
C292        C637   1.511       .  S
C293        C294   1.425       .  A
C293        H298   1.075       .  S
C294        C295   1.425       .  A
C295        C296   1.411       .  A
C295        H299   1.076       .  S
C296        C297   1.404       .  A
C296        C628   1.508       .  S
C297        H300   1.082       .  S
N301        N302   1.326   1_565  A
N301        C305   1.349   1_565  A
N301       Cu309   2.109       .  S
N302        C303   1.341       .  A
N302       Cu308   2.069       .  S
C303        C304   1.379       .  A
C303        H306   1.082       .  S
C304        C305   1.389       .  A
C305        H307   1.082       .  S
Cu308       N311   2.064   1_545  S
Cu309       N319   2.105       .  S
Cu310       N312   2.032       .  S
Cu310       N318   2.028       .  S
N311        N312   1.316       .  A
N311        C315   1.349   1_565  A
N312        C313   1.334       .  A
C313        C314   1.377       .  A
C313        H316   1.082       .  S
C314        C315   1.388   1_565  A
C314        C525   1.460       .  S
C315        H317   1.082       .  S
N318        N319   1.320       .  A
N318        C322   1.335       .  A
N319        C320   1.354       .  A
C320        C321   1.394       .  A
C320        H323   1.082       .  S
C321        C322   1.374       .  A
C321        C613   1.478       .  S
C322        H324   1.082       .  S
C325        C326   1.376       .  D
C325        C616   1.498       .  S
C325        C712   1.515       .  S
C326        C601   1.494       .  S
C326        C664   1.508       .  S
N327        N328   1.322       .  A
N327        C331   1.347       .  A
N327       Cu335   2.100       .  S
N328        C329   1.341       .  A
N328       Cu334   2.056       .  S
C329        C330   1.380       .  A
C329        H332   1.082       .  S
C330        C331   1.391       .  A
C331        H333   1.082       .  S
Cu334       N337   2.062       .  S
Cu335       N345   2.097       .  S
Cu336       N338   2.043       .  S
Cu336       N344   2.045       .  S
N337        N338   1.318       .  A
N337        C341   1.341       .  A
N338        C339   1.340       .  A
C339        C340   1.380       .  A
C339        H342   1.082       .  S
C340        C341   1.383       .  A
C340        C461   1.453       .  S
C341        H343   1.083       .  S
N344        N345   1.321       .  A
N344        C348   1.338       .  A
N345        C346   1.352       .  A
C346        C347   1.390       .  A
C346        H349   1.081       .  S
C347        C348   1.376       .  A
C347        C604   1.477       .  S
C348        H350   1.081       .  S
N351        N352   1.323       .  A
N351        C355   1.346   1_554  A
N351       Cu359   2.096       .  S
N352        C353   1.340       .  A
N352       Cu358   2.055       .  S
C353        C354   1.379       .  A
C353        H356   1.082       .  S
C354        C355   1.388   1_554  A
C355        H357   1.082       .  S
Cu358       N361   2.052       .  S
Cu359       N369   2.093       .  S
Cu360       N362   2.049       .  S
Cu360       N368   2.046       .  S
N361        N362   1.318       .  A
N361        C365   1.348       .  A
N362        C363   1.337       .  A
C363        C364   1.380       .  A
C363        H366   1.082       .  S
C364        C365   1.383       .  A
C364        C463   1.461       .  S
C365        H367   1.082       .  S
N368        N369   1.319       .  A
N368        C372   1.337       .  A
N369        C370   1.350       .  A
C370        C371   1.395       .  A
C370        H373   1.081   1_554  S
C371        C372   1.384       .  A
C371        C589   1.493       .  S
C372        H374   1.081       .  S
N375        N376   1.326   1_565  A
N375        C379   1.349   1_566  A
N375       Cu383   2.106       .  S
N376        C377   1.340       .  A
N376       Cu382   2.067       .  S
C377        C378   1.379       .  A
C377        H380   1.082       .  S
C378        C379   1.389   1_556  A
C379        H381   1.082       .  S
Cu382       N385   2.062   1_545  S
Cu383       N393   2.101       .  S
Cu384       N386   2.030       .  S
Cu384       N392   2.025       .  S
N385        N386   1.315       .  A
N385        C389   1.349   1_565  A
N386        C387   1.334       .  A
C387        C388   1.378       .  A
C387        H390   1.082       .  S
C388        C389   1.389   1_565  A
C388        C527   1.460       .  S
C389        H391   1.082       .  S
N392        N393   1.319       .  A
N392        C396   1.334       .  A
N393        C394   1.354       .  A
C394        C395   1.393       .  A
C394        H397   1.082   1_556  S
C395        C396   1.374       .  A
C395        C577   1.477       .  S
C396        H398   1.082       .  S
C399        C400   1.377   1_554  D
C399        C580   1.495       .  S
C399        C700   1.518       .  S
C400        C592   1.488   1_556  S
C400        C652   1.508       .  S
C401        C402   1.376   1_556  D
C401        C556   1.491       .  S
C401        C640   1.512       .  S
C402        C565   1.489       .  S
C402        C688   1.507       .  S
N403        N404   1.323       .  A
N403        C407   1.346   1_556  A
N403       Cu411   2.098   1_545  S
N404        C405   1.339       .  A
N404       Cu410   2.051       .  S
C405        C406   1.378       .  A
C405        H408   1.082       .  S
C406        C407   1.389   1_556  A
C407        H409   1.082       .  S
Cu410       N413   2.047   1_545  S
Cu411       N421   2.095       .  S
Cu412       N414   2.047       .  S
Cu412       N420   2.038       .  S
N413        N414   1.317       .  A
N413        C417   1.347   1_565  A
N414        C415   1.337       .  A
C415        C416   1.381       .  A
C415        H418   1.082       .  S
C416        C417   1.384   1_565  A
C416        C526   1.458       .  S
C417        H419   1.082       .  S
N420        N421   1.318       .  A
N420        C424   1.336       .  A
N421        C422   1.349       .  A
C422        C423   1.397       .  A
C422        H425   1.082   1_556  S
C423        C424   1.384       .  A
C423        C568   1.496       .  S
C424        H426   1.077       .  S
N427        N428   1.324       .  A
N427        C431   1.347       .  A
N427       Cu435   2.098       .  S
N428        C429   1.340       .  A
N428       Cu434   2.062       .  S
C429        C430   1.379       .  A
C429        H432   1.082       .  S
C430        C431   1.389       .  A
C431        H433   1.082   1_554  S
Cu434       N437   2.060       .  S
Cu435       N445   2.095       .  S
Cu436       N438   2.040       .  S
Cu436       N444   2.032       .  S
N437        N438   1.315       .  A
N437        C441   1.344       .  A
N438        C439   1.338       .  A
C439        C440   1.382       .  A
C439        H442   1.082       .  S
C440        C441   1.389       .  A
C440        C462   1.460       .  S
C441        H443   1.082       .  S
N444        N445   1.320       .  A
N444        C448   1.334       .  A
N445        C446   1.352       .  A
C446        C447   1.391       .  A
C446        H449   1.082   1_554  S
C447        C448   1.375       .  A
C447        C553   1.477       .  S
C448        H450   1.082       .  S
O451       Cu459   1.998   1_455  S
O451        C461   1.276       .  A
O452       Cu459   1.997       .  S
O452        C462   1.276       .  A
O453       Cu459   2.027   1_455  S
O453        C463   1.280       .  A
O454       Cu459   2.029       .  S
O454        C464   1.280       .  A
O455       Cu460   1.953       .  S
O455        C464   1.272       .  A
O456       Cu460   1.965   1_455  S
O456        C463   1.272       .  A
O457       Cu460   1.986       .  S
O457        C462   1.276       .  A
O458       Cu460   1.982   1_455  S
O458        C461   1.275       .  A
Cu459      Cu460   2.378       .  S
C464        C478   1.458       .  S
N465        N466   1.326       .  A
N465        C469   1.347       .  A
N465       Cu473   2.109       .  S
N466        C467   1.340       .  A
N466       Cu472   2.056       .  S
C467        C468   1.377       .  A
C467        H470   1.082       .  S
C468        C469   1.389       .  A
C469        H471   1.082       .  S
Cu472       N475   2.054       .  S
Cu473       N483   2.105       .  S
Cu474       N476   2.034       .  S
Cu474       N482   2.032       .  S
N475        N476   1.316       .  A
N475        C479   1.350       .  A
N476        C477   1.332       .  A
C477        C478   1.378       .  A
C477        H480   1.082       .  S
C478        C479   1.386       .  A
C479        H481   1.082       .  S
N482        N483   1.320       .  A
N482        C486   1.337       .  A
N483        C484   1.354       .  A
C484        C485   1.394       .  A
C484        H487   1.082       .  S
C485        C486   1.375       .  A
C485        C541   1.480       .  S
C486        H488   1.082       .  S
N489        N490   1.324       .  A
N489        C493   1.347       .  A
N489       Cu497   2.106   1_545  S
N490        C491   1.340       .  A
N490       Cu496   2.055       .  S
C491        C492   1.379       .  A
C491        H494   1.082       .  S
C492        C493   1.390       .  A
C493        H495   1.082       .  S
Cu496       N499   2.052   1_545  S
Cu497       N507   2.102       .  S
Cu498       N500   2.042       .  S
Cu498       N506   2.034       .  S
N499        N500   1.316       .  A
N499        C503   1.347   1_565  A
N500        C501   1.336       .  A
C501        C502   1.381       .  A
C501        H504   1.082       .  S
C502        C503   1.386   1_565  A
C502        C528   1.459       .  S
C503        H505   1.082       .  S
N506        N507   1.317       .  A
N506        C510   1.335       .  A
N507        C508   1.351       .  A
C508        C509   1.401       .  A
C508        H511   1.079       .  S
C509        C510   1.386       .  A
C509        C529   1.502       .  S
C510        H512   1.080       .  S
C513        C514   1.375       .  D
C513        C532   1.487       .  S
C513        C676   1.503       .  S
C514        C544   1.498       .  S
C514        C625   1.518       .  S
O515       Cu523   1.968       .  S
O515        C525   1.274       .  A
O516       Cu523   1.968       .  S
O516        C526   1.273       .  A
O517       Cu523   1.966       .  S
O517        C527   1.274       .  A
O518       Cu523   1.964       .  S
O518        C528   1.273       .  A
O519       Cu524   2.017       .  S
O519        C528   1.279   1_545  A
O520       Cu524   2.019       .  S
O520        C527   1.278   1_545  A
O521       Cu524   2.016       .  S
O521        C526   1.279   1_545  A
O522       Cu524   2.019       .  S
O522        C525   1.278   1_545  A
Cu523      Cu524   2.377   1_565  S
C529        C530   1.414       .  A
C529        C534   1.419       .  A
C530        C531   1.396       .  A
C530        H535   1.080       .  S
C531        C532   1.403       .  A
C531        C538   1.445       .  S
C532        C533   1.402       .  A
C533        C534   1.404       .  A
C533        H536   1.085       .  S
C534        C537   1.442       .  S
C537        N539   1.157       .  T
C538        N540   1.157       .  T
C541        C542   1.405       .  A
C541        C546   1.408       .  A
C542        C543   1.398       .  A
C542        H547   1.085       .  S
C543        C544   1.410       .  A
C543        C550   1.445       .  S
C544        C545   1.409       .  A
C545        C546   1.403       .  A
C545        H548   1.084       .  S
C546        C549   1.443       .  S
C549        N551   1.157       .  T
C550        N552   1.157       .  T
C553        C554   1.402       .  A
C553        C558   1.415       .  A
C554        C555   1.404   1_554  A
C554        H559   1.084       .  S
C555        C556   1.414       .  A
C555        C562   1.443       .  S
C556        C557   1.399   1_556  A
C557        C558   1.393       .  A
C557        H560   1.085   1_554  S
C558        C561   1.445       .  S
C561        N563   1.157       .  T
C562        N564   1.157       .  T
C565        C566   1.397   1_554  A
C565        C570   1.410       .  A
C566        C567   1.397       .  A
C566        H571   1.085       .  S
C567        C568   1.424       .  A
C567        C574   1.443       .  S
C568        C569   1.407   1_556  A
C569        C570   1.401       .  A
C569        H572   1.083       .  S
C570        C573   1.444       .  S
C573        N575   1.157       .  T
C574        N576   1.158       .  T
C577        C578   1.401   1_556  A
C577        C582   1.414   1_556  A
C578        C579   1.404       .  A
C578        H583   1.084   1_554  S
C579        C580   1.417       .  A
C579        C586   1.443       .  S
C580        C581   1.401       .  A
C581        C582   1.394       .  A
C581        H584   1.084       .  S
C582        C585   1.445   1_554  S
C585        N587   1.157       .  T
C586        N588   1.157       .  T
C589        C590   1.410       .  A
C589        C594   1.416   1_554  A
C590        C591   1.396       .  A
C590        H595   1.083       .  S
C591        C592   1.406       .  A
C591        C598   1.444       .  S
C592        C593   1.403   1_554  A
C593        C594   1.404       .  A
C593        H596   1.085       .  S
C594        C597   1.442       .  S
C597        N599   1.157       .  T
C598        N600   1.157       .  T
C601        C602   1.403       .  A
C601        C606   1.414       .  A
C602        C603   1.399       .  A
C602        H607   1.085       .  S
C603        C604   1.413       .  A
C603        C610   1.444       .  S
C604        C605   1.400       .  A
C605        C606   1.402       .  A
C605        H608   1.085       .  S
C606        C609   1.443       .  S
C609        N611   1.157       .  T
C610        N612   1.157       .  T
C613        C614   1.404       .  A
C613        C618   1.407       .  A
C614        C615   1.396       .  A
C614        H619   1.085       .  S
C615        C616   1.412       .  A
C615        C622   1.445       .  S
C616        C617   1.409       .  A
C617        C618   1.404       .  A
C617        H620   1.084       .  S
C618        C621   1.443       .  S
C621        N623   1.157       .  T
C622        N624   1.157       .  T
C625        C626   1.413       .  A
C625        C630   1.415       .  A
C626        C627   1.411       .  A
C626        H631   1.083       .  S
C627        C628   1.416       .  A
C627        C634   1.443       .  S
C628        C629   1.405       .  A
C629        C630   1.399       .  A
C629        H632   1.080       .  S
C630        C633   1.444       .  S
C633        N635   1.157       .  T
C634        N636   1.157       .  T
C637        C638   1.410       .  A
C637        C642   1.420       .  A
C638        C639   1.410       .  A
C638        H643   1.083       .  S
C639        C640   1.416       .  A
C639        C646   1.441       .  S
C640        C641   1.403       .  A
C641        C642   1.400       .  A
C641        H644   1.084       .  S
C642        C645   1.443       .  S
C645        N647   1.157       .  T
C646        N648   1.157   1_556  T
C649        C650   1.411       .  A
C649        C654   1.417       .  A
C650        C651   1.407       .  A
C650        H655   1.084       .  S
C651        C652   1.413       .  A
C651        C658   1.443       .  S
C652        C653   1.407       .  A
C653        C654   1.405       .  A
C653        H656   1.085       .  S
C654        C657   1.444       .  S
C657        N659   1.157       .  T
C658        N660   1.157       .  T
C661        C662   1.409       .  A
C661        C666   1.416       .  A
C662        C663   1.407       .  A
C662        H667   1.085       .  S
C663        C664   1.414       .  A
C663        C670   1.442       .  S
C664        C665   1.406       .  A
C665        C666   1.404       .  A
C665        H668   1.085       .  S
C666        C669   1.444       .  S
C669        N671   1.157       .  T
C670        N672   1.157       .  T
C673        C674   1.411       .  A
C673        C678   1.418       .  A
C674        C675   1.404       .  A
C674        H679   1.084       .  S
C675        C676   1.410       .  A
C675        C682   1.443       .  S
C676        C677   1.406       .  A
C677        C678   1.405       .  A
C677        H680   1.084       .  S
C678        C681   1.444       .  S
C681        N683   1.157       .  T
C682        N684   1.157       .  T
C685        C686   1.411       .  A
C685        C690   1.415       .  A
C686        C687   1.404       .  A
C686        H691   1.085       .  S
C687        C688   1.412       .  A
C687        C694   1.443       .  S
C688        C689   1.408       .  A
C689        C690   1.405       .  A
C689        H692   1.085       .  S
C690        C693   1.443       .  S
C693        N695   1.157       .  T
C694        N696   1.157       .  T
C697        C698   1.410       .  A
C697        C702   1.417       .  A
C698        C699   1.400       .  A
C698        H703   1.085       .  S
C699        C700   1.414       .  A
C699        C706   1.444       .  S
C700        C701   1.411       .  A
C701        C702   1.411       .  A
C701        H704   1.083       .  S
C702        C705   1.443       .  S
C705        N707   1.157       .  T
C706        N708   1.157       .  T
C709        C710   1.408       .  A
C709        C714   1.417       .  A
C710        C711   1.399       .  A
C710        H715   1.085       .  S
C711        C712   1.414       .  A
C711        C718   1.444       .  S
C712        C713   1.411       .  A
C713        C714   1.410       .  A
C713        H716   1.084       .  S
C714        C717   1.443       .  S
C717        N719   1.157       .  T
C718        N720   1.157       .  T
C721        C722   1.408       .  A
C721        C726   1.407       .  A
C722        C723   1.405       .  A
C722        H727   1.084       .  S
C723        C724   1.410       .  A
C723        C730   1.442       .  S
C724        C725   1.407       .  A
C725        C726   1.393       .  A
C725        H728   1.084       .  S
C726        C729   1.445       .  S
C729        N731   1.157       .  T
C730        N732   1.157       .  T
C733        C734   1.398       .  A
C733        C738   1.411       .  A
C734        C735   1.397       .  A
C734        H739   1.085       .  S
C735        C736   1.425       .  A
C735        C742   1.442       .  S
C736        C737   1.409       .  A
C737        C738   1.403       .  A
C737        H740   1.083       .  S
C738        C741   1.444       .  S
C741        N743   1.157       .  T
C742        N744   1.158       .  T
C745        C746   1.399       .  A
C745        C750   1.415       .  A
C746        C747   1.403       .  A
C746        H751   1.085       .  S
C747        C748   1.425       .  A
C747        C754   1.440       .  S
C748        C749   1.407       .  A
C749        C750   1.399       .  A
C749        H752   1.083       .  S
C750        C753   1.443       .  S
C753        N755   1.157       .  T
C754        N756   1.158       .  T
C757        C758   1.412       .  A
C757        C762   1.418       .  A
C758        C759   1.399       .  A
C758        H763   1.081       .  S
C759        C760   1.405       .  A
C759        C766   1.444       .  S
C760        C761   1.404       .  A
C761        C762   1.404       .  A
C761        H764   1.083       .  S
C762        C765   1.442       .  S
C765        N767   1.158       .  T
C766        N768   1.157       .  T
C769        C770   1.403   1_554  A
C769        C774   1.406       .  A
C770        C771   1.407       .  A
C770        H775   1.084       .  S
C771        C772   1.420   1_556  A
C771        C778   1.441       .  S
C772        C773   1.411       .  A
C773        C774   1.393       .  A
C773        H776   1.079       .  S
C774        C777   1.444       .  S
C777        N779   1.157       .  T
C778        N780   1.158       .  T
C781        C782   1.402   1_554  A
C781        C786   1.413       .  A
C782        C783   1.396       .  A
C782        H787   1.084       .  S
C783        C784   1.413       .  A
C783        C790   1.445       .  S
C784        C785   1.400       .  A
C785        C786   1.401   1_556  A
C785        H788   1.084   1_556  S
C786        C789   1.441       .  S
C789        N791   1.157       .  T
C790        N792   1.157       .  T
C793        C794   1.409       .  A
C793        C798   1.408   1_554  A
C794        C795   1.404   1_554  A
C794        H799   1.084       .  S
C795        C796   1.409       .  A
C795        C802   1.442       .  S
C796        C797   1.406       .  A
C797        C798   1.393       .  A
C797        H800   1.084       .  S
C798        C801   1.445       .  S
C801        N803   1.157       .  T
C802        N804   1.157       .  T
C805        C806   1.403   1_556  A
C805        C810   1.414       .  A
C806        C807   1.396       .  A
C806        H811   1.085       .  S
C807        C808   1.412       .  A
C807        C814   1.444       .  S
C808        C809   1.401   1_554  A
C809        C810   1.402       .  A
C809        H812   1.085       .  S
C810        C813   1.444       .  S
C813        N815   1.157       .  T
C814        N816   1.157       .  T
C817        C818   1.406       .  A
C817        C822   1.417       .  A
C818        C819   1.404       .  A
C818        H823   1.084       .  S
C819        C820   1.416       .  A
C819        C826   1.443       .  S
C820        C821   1.408       .  A
C821        C822   1.406       .  A
C821        H824   1.083       .  S
C822        C825   1.444       .  S
C825        N827   1.157       .  T
C826        N828   1.157       .  T
C829        C830   1.412       .  A
C829        C834   1.423       .  A
C830        C831   1.409       .  A
C830        H835   1.083       .  S
C831        C832   1.414       .  A
C831        C838   1.442       .  S
C832        C833   1.403       .  A
C833        C834   1.402       .  A
C833        H836   1.084       .  S
C834        C837   1.445       .  S
C837        N839   1.157       .  T
C838        N840   1.157   1_554  T
C841        C842   1.420       .  A
C841        C846   1.430       .  A
C842        C843   1.403       .  A
C842        H847   1.078       .  S
C843        C844   1.406       .  A
C843        C850   1.445       .  S
C844        C845   1.401       .  A
C845        C846   1.410       .  A
C845        H848   1.085       .  S
C846        C849   1.443       .  S
C849        N851   1.158       .  T
C850        N852   1.157       .  T
C853        C854   1.409       .  A
C853        C858   1.418       .  A
C854        C855   1.400       .  A
C854        H859   1.085       .  S
C855        C856   1.413       .  A
C855        C862   1.444       .  S
C856        C857   1.412       .  A
C857        C858   1.413       .  A
C857        H860   1.084       .  S
C858        C861   1.442       .  S
C861        N863   1.157       .  T
C862        N864   1.157       .  T
C865        C866   1.409       .  A
C865        C870   1.419       .  A
C866        C867   1.410       .  A
C866        H871   1.083       .  S
C867        C868   1.418       .  A
C867        C874   1.442       .  S
C868        C869   1.404       .  A
C869        C870   1.400       .  A
C869        H872   1.084       .  S
C870        C873   1.445       .  S
C873        N875   1.157       .  T
C874        N876   1.157       .  T
C877        C878   1.400       .  A
C877        C882   1.409       .  A
C878        C879   1.407       .  A
C878        H883   1.085       .  S
C879        C880   1.430       .  A
C879        C886   1.443       .  S
C880        C881   1.414       .  A
C881        C882   1.406       .  A
C881        H884   1.078       .  S
C882        C885   1.444       .  S
C885        N887   1.157       .  T
C886        N888   1.158       .  T
C889        C890   1.405       .  A
C889        C894   1.420       .  A
C890        C891   1.401       .  A
C890        H895   1.085       .  S
C891        C892   1.419       .  A
C891        C898   1.443       .  S
C892        C893   1.410       .  A
C893        C894   1.413       .  A
C893        H896   1.085       .  S
C894        C897   1.443       .  S
C897        N899   1.157       .  T
C898        N900   1.157       .  T
C901        C902   1.407       .  A
C901        C906   1.418       .  A
C902        C903   1.405       .  A
C902        H907   1.084       .  S
C903        C904   1.416       .  A
C903        C910   1.443       .  S
C904        C905   1.408       .  A
C905        C906   1.409       .  A
C905        H908   1.083       .  S
C906        C909   1.442       .  S
C909        N911   1.157       .  T
C910        N912   1.157       .  T
