geometry optimzed in LAMMPS
_audit_creation_date              2020-11-30 
_audit_creation_method            'lammps2cif' 
_symmetry_space_group_name_H-M    'P1' 
_symmetry_Int_Tables_number       1 
_symmetry_cell_setting            triclinic 
loop_ 
_symmetry_equiv_pos_as_xyz 
  x,y,z 
_cell_length_a                    43.84718277 
_cell_length_b                    43.747888366666984 
_cell_length_c                    47.14062479060535 
_cell_angle_alpha                 89.68713132130564 
_cell_angle_beta                  90.06479564972736 
_cell_angle_gamma                 90.11335438158167 
loop_ 
_atom_site_label 
_atom_site_type_symbol 
_atom_site_fract_x 
_atom_site_fract_y 
_atom_site_fract_z 
_atom_site_charge 
In1        In  0.25274850  0.99575204  0.49969822     1.36900
C2          C  0.21617748  0.94676944  0.00257436     0.77800
O3          O  0.27149738  0.97159013  0.03802332    -0.60700
O4          O  0.28973457  0.01517507  0.02720918    -0.51600
C5          C  0.28724010  0.99783631  0.45313740     0.70400
O6          O  0.25856769  0.99731573  0.45195786    -0.46400
C7          C  0.21933761  0.04654065  0.50191755     0.75100
O8          O  0.24294748  0.94573499  0.49292655    -0.58300
O9          O  0.23364554  0.03608517  0.02301306    -0.48400
O10         O  0.20828559  0.97296060  0.01069261    -0.54700
C11         C  0.29057522  0.99231379  0.04366206     0.85300
O12         O  0.29782702  0.99641738  0.47785885    -0.56600
O13         O  0.22299522  0.03158075  0.47945802    -0.59900
N14         N  0.50177161  0.99503928  0.29284502    -0.36400
N15         N  0.54902221  0.99399904  0.24956538    -0.57000
N16         N  0.50301841  0.98211945  0.20664687    -0.36400
N17         N  0.45591001  0.98605685  0.25000497    -0.57000
C18         C  0.52596440  0.00564243  0.30755051     0.27200
C19         C  0.47642978  0.00249178  0.30758654     0.27200
C20         C  0.52740715  0.98775857  0.18986214     0.27200
C21         C  0.47784689  0.98413641  0.19013685     0.27200
C22         C  0.56679085  0.99310227  0.27297134     0.35800
C23         C  0.56757691  0.98841246  0.22734272     0.35800
C24         C  0.43823877  0.98309855  0.27327454     0.35800
C25         C  0.43871730  0.97693913  0.22787645     0.35800
C26         C  0.51598104  0.01987508  0.33206289    -0.21700
C27         C  0.48462304  0.01794688  0.33204985    -0.21700
C28         C  0.51767599  0.99223052  0.16212997    -0.21700
C29         C  0.48639590  0.99012267  0.16233727    -0.21700
C30         C  0.59678809  0.98716374  0.26553873    -0.22800
C31         C  0.59736681  0.98476428  0.23656784    -0.22800
C32         C  0.40974226  0.97186795  0.26592272    -0.22800
C33         C  0.40997113  0.96821422  0.23706229    -0.22800
C34         C  0.55681370  0.00029075  0.30062609    -0.18100
C35         C  0.44639267  0.99358838  0.30046991    -0.18100
C36         C  0.44742048  0.97969930  0.19923968    -0.18100
C37         C  0.55827635  0.98798168  0.19867953    -0.18100
H38         H  0.52989795  0.03012226  0.34845220     0.14800
H39         H  0.46960784  0.02641011  0.34842468     0.14800
H40         H  0.53160959  0.99669056  0.14362541     0.14800
H41         H  0.47165206  0.99257750  0.14403679     0.14800
H42         H  0.61638622  0.98554916  0.27943671     0.13100
H43         H  0.61742299  0.98066729  0.22379354     0.13100
H44         H  0.39047159  0.96774219  0.27976062     0.13100
H45         H  0.39096505  0.96062903  0.22421441     0.13100
H46         H  0.50285981  0.98002339  0.27586993     0.26300
H47         H  0.50368930  0.97470751  0.22757813     0.26300
In48       In  0.75480155  0.99898650  0.49872319     1.36900
C49         C  0.79482002  0.04491784  0.99827889     0.77800
O50         O  0.73062859  0.02056923  0.03577512    -0.60700
O51         O  0.71775709  0.97574987  0.02396066    -0.51600
C52         C  0.71541082  0.00251012  0.45555663     0.70400
O53         O  0.72367903  0.02542347  0.46969819    -0.46400
C54         C  0.79508109  0.95247807  0.50099453     0.75100
O55         O  0.78222040  0.03510069  0.47607908    -0.58300
O56         O  0.77852776  0.96012302  0.02154785    -0.48400
O57         O  0.78632993  0.03180414  0.02084878    -0.54700
C58         C  0.71356795  0.99784895  0.04053913     0.85300
O59         O  0.72787487  0.97781715  0.46318474    -0.56600
O60         O  0.79042540  0.96833457  0.47903163    -0.59900
In61       In  0.00699863  0.24411758  0.50241006     1.36900
C62         C  0.05617852  0.20781430  0.00206180     0.77800
O63         O  0.03082861  0.28039443  0.02784071    -0.60700
O64         O  0.98675703  0.26602263  0.04128710    -0.51600
C65         C  0.00468452  0.28131333  0.45731170     0.70400
O66         O  0.00960680  0.25303462  0.45522642    -0.46400
C67         C  0.95816610  0.20729868  0.50235023     0.75100
O68         O  0.04281181  0.21640659  0.47980544    -0.58300
O69         O  0.98004634  0.20401524  0.01936125    -0.48400
O70         O  0.04518550  0.21868073  0.02447204    -0.54700
C71         C  0.00937236  0.28341938  0.04544839     0.85300
O72         O  0.00149743  0.29034450  0.48241848    -0.56600
O73         O  0.96040047  0.23028957  0.48638339    -0.59900
N74         N  0.01167142  0.49740679  0.20780170    -0.36400
N75         N  0.00575412  0.45062295  0.25178832    -0.57000
N76         N  0.99843011  0.49798254  0.29416039    -0.36400
N77         N  0.00160401  0.54483064  0.24997096    -0.57000
C78         C  0.00767565  0.47221663  0.19161607     0.27200
C79         C  0.00764080  0.52211240  0.19081066     0.27200
C80         C  0.99281927  0.47279565  0.31018580     0.27200
C81         C  0.98869304  0.52258920  0.30889832     0.27200
C82         C  0.01359746  0.43280345  0.22961828     0.35800
C83         C  0.00937745  0.43335483  0.27543022     0.35800
C84         C  0.00969038  0.56272464  0.22770404     0.35800
C85         C  0.00097301  0.56311319  0.27302285     0.35800
C86         C  0.00145591  0.48107325  0.16391211    -0.21700
C87         C  0.00153421  0.51253598  0.16338851    -0.21700
C88         C  0.97953002  0.48151108  0.33555334    -0.21700
C89         C  0.97691981  0.51289536  0.33474275    -0.21700
C90         C  0.02184217  0.40397406  0.23914225    -0.22800
C91         C  0.01951616  0.40441595  0.26816386    -0.22800
C92         C  0.01385274  0.59259545  0.23657838    -0.22800
C93         C  0.00832718  0.59284875  0.26526854    -0.22800
C94         C  0.01142031  0.44152836  0.20077543    -0.18100
C95         C  0.01076846  0.55303961  0.19911122    -0.18100
C96         C  0.99258954  0.55366650  0.30076625    -0.18100
C97         C  0.00116249  0.44240784  0.30321924    -0.18100
H98         H  0.99763579  0.46641206  0.14582802     0.14800
H99         H  0.99762411  0.52673203  0.14486808     0.14800
H100        H  0.97285471  0.46682883  0.35303629     0.14800
H101        H  0.96794373  0.52703189  0.35154409     0.14800
H102        H  0.02871809  0.38459911  0.22650412     0.13100
H103        H  0.02413463  0.38535336  0.28224142     0.13100
H104        H  0.01975408  0.61225003  0.22364625     0.13100
H105        H  0.00935375  0.61272032  0.27881700     0.13100
H106        H  0.01998232  0.49781238  0.22838326     0.26300
H107        H  0.01154839  0.49861502  0.27592053     0.26300
In108      In  0.00357181  0.74831974  0.49897773     1.36900
C109        C  0.95919113  0.78988449  0.00198857     0.77800
O110        O  0.99159166  0.72713649  0.04086450    -0.60700
O111        O  0.03063167  0.71052635  0.01953520    -0.51600
C112        C  0.99151559  0.71140588  0.45529821     0.70400
O113        O  0.97091519  0.72099751  0.47154846    -0.46400
C114        C  0.05185159  0.78528290  0.49940571     0.75100
O115        O  0.98030753  0.79126819  0.48389024    -0.58300
O116        O  0.03813682  0.77725453  0.02174634    -0.48400
O117        O  0.96054085  0.76695719  0.01825228    -0.54700
C118        C  0.01354311  0.70862171  0.04090778     0.85300
O119        O  0.01778484  0.72083750  0.46140215    -0.56600
O120        O  0.04088581  0.77423235  0.47696278    -0.59900
C121        C  0.98943936  0.57756083  0.32314283     0.01500
C122        C  0.01306064  0.58154415  0.34313406     0.04300
C123        C  0.01046022  0.60382249  0.36436984    -0.11700
C124        C  0.98483619  0.62316404  0.36509455     0.23600
C125        C  0.96125157  0.61944906  0.34509079    -0.12300
C126        C  0.96326181  0.59630889  0.32445342     0.05100
C127        C  0.98305217  0.64740725  0.38697880     0.27500
C128        C  0.96769927  0.64180519  0.41273159    -0.13000
C129        C  0.96878445  0.66355711  0.43466586     0.05600
C130        C  0.98598701  0.69066101  0.43111169    -0.08900
C131        C  0.00007068  0.69683080  0.40475519     0.06400
C132        C  0.99836223  0.67537007  0.38269587    -0.13300
Br133      Br  0.92637594  0.64624353  0.34619721    -0.05400
Br134      Br  0.04934160  0.55675579  0.34114859     0.00200
Br135      Br  0.94815998  0.65511114  0.47000078     0.00700
Br136      Br  0.01738689  0.68392607  0.34661219    -0.03700
Br137      Br  0.92991686  0.58982703  0.29849457     0.00800
Br138      Br  0.04179080  0.60762304  0.39292770    -0.03000
Br139      Br  0.94629482  0.60363652  0.41817858    -0.03900
Br140      Br  0.02118410  0.73508619  0.39848823     0.00100
C141        C  0.01833523  0.68632827  0.06408262     0.01500
C142        C  0.01769138  0.69622263  0.09248586     0.04300
C143        C  0.01810678  0.67471804  0.11476433    -0.11700
C144        C  0.01990906  0.64323777  0.10879264     0.23600
C145        C  0.02208114  0.63340961  0.08041195    -0.12300
C146        C  0.02136626  0.65491271  0.05806299     0.05100
C147        C  0.01786323  0.62046192  0.13225781     0.27500
C148        C  0.04444763  0.60694357  0.14351567    -0.13000
C149        C  0.04214186  0.58460593  0.16508163     0.05600
C150        C  0.01337043  0.57676192  0.17635840    -0.08900
C151        C  0.98692227  0.59105676  0.16573115     0.06400
C152        C  0.98909326  0.61234651  0.14334037    -0.13300
Br153      Br  0.02434503  0.59031876  0.07217757    -0.05400
Br154      Br  0.01724131  0.73937753  0.10093901     0.00200
Br155      Br  0.07824987  0.56450947  0.17915267     0.00700
Br156      Br  0.95261038  0.63018184  0.12747849    -0.03700
Br157      Br  0.02243575  0.64101242  0.01924336     0.00800
Br158      Br  0.01495301  0.68829177  0.15350791    -0.03000
Br159      Br  0.08391020  0.61949922  0.12960991    -0.03900
Br160      Br  0.94769914  0.58119071  0.18184899     0.00100
C161        C  0.00037485  0.41832832  0.32590655     0.01500
C162        C  0.02258909  0.41798139  0.34765289     0.04300
C163        C  0.02240498  0.39454678  0.36823838    -0.11700
C164        C  0.00176039  0.36999532  0.36585425     0.23600
C165        C  0.98009192  0.36984030  0.34379589    -0.12300
C166        C  0.97837733  0.39470468  0.32480104     0.05100
C167        C  0.00127481  0.34571295  0.38796495     0.27500
C168        C  0.02249575  0.32158376  0.38739211    -0.13000
C169        C  0.02320891  0.29989742  0.40962218     0.05600
C170        C  0.00265416  0.30240104  0.43262259    -0.08900
C171        C  0.98069048  0.32608320  0.43248544     0.06400
C172        C  0.98019635  0.34770237  0.41032673    -0.13300
Br173      Br  0.95294117  0.33538488  0.33967849    -0.05400
Br174      Br  0.05381059  0.44903416  0.34899586     0.00200
Br175      Br  0.05368652  0.26807422  0.40903377     0.00700
Br176      Br  0.95108457  0.38081655  0.41079443    -0.03700
Br177      Br  0.94517429  0.39699301  0.29799819     0.00800
Br178      Br  0.04976847  0.39632961  0.40031481    -0.03000
Br179      Br  0.05109808  0.31894214  0.35641899    -0.03900
Br180      Br  0.95017166  0.32867763  0.46190519     0.00100
C181        C  0.01201468  0.41697949  0.17891503     0.01500
C182        C  0.98444004  0.40400423  0.16928465     0.04300
C183        C  0.98475559  0.38169606  0.14790477    -0.11700
C184        C  0.01269764  0.37147240  0.13672346     0.23600
C185        C  0.04034620  0.38373658  0.14692690    -0.12300
C186        C  0.03999135  0.40671923  0.16774273     0.05100
C187        C  0.01280656  0.34868324  0.11346101     0.27500
C188        C  0.00919939  0.31730684  0.11954091    -0.13000
C189        C  0.00797759  0.29594445  0.09729052     0.05600
C190        C  0.01057756  0.30585578  0.06885581    -0.08900
C191        C  0.01445014  0.33730604  0.06285778     0.06400
C192        C  0.01548983  0.35863067  0.08511007    -0.13300
Br193      Br  0.07859002  0.36907401  0.13211358    -0.05400
Br194      Br  0.94620778  0.41688298  0.18542436     0.00200
Br195      Br  0.00392915  0.25296118  0.10586138     0.00700
Br196      Br  0.01999860  0.40172298  0.07692307    -0.03700
Br197      Br  0.07774621  0.42423260  0.18100182     0.00800
Br198      Br  0.94689431  0.36558861  0.13328646    -0.03000
Br199      Br  0.00603141  0.30378365  0.15845931    -0.03900
Br200      Br  0.01675197  0.35161749  0.02414011     0.00100
C201        C  0.81819791  0.92736350  0.50254588     0.01500
C202        C  0.83356773  0.92055335  0.02838289     0.04300
C203        C  0.85624384  0.89773260  0.02931896    -0.11700
C204        C  0.86395202  0.88152907  0.50464795     0.23600
C205        C  0.84847073  0.88769922  0.47907169    -0.12300
C206        C  0.82549171  0.91018536  0.47802884     0.05100
C207        C  0.88842023  0.85798247  0.00549342     0.27500
C208        C  0.91931889  0.86693146  0.00520478    -0.13000
C209        C  0.94247054  0.84468084  0.00425885     0.05600
C210        C  0.93486369  0.81326918  0.00393591    -0.08900
C211        C  0.90391046  0.80435675  0.00535076     0.06400
C212        C  0.88079882  0.82666157  0.50604587    -0.13300
Br213      Br  0.85899194  0.86512621  0.44531964    -0.05400
Br214      Br  0.82482927  0.94255390  0.06284636     0.00200
Br215      Br  0.98461513  0.85749004  0.00474551     0.00700
Br216      Br  0.83850737  0.81441299  0.50762826    -0.03700
Br217      Br  0.80287672  0.91541882  0.44314408     0.00800
Br218      Br  0.87725390  0.88862906  0.06445187    -0.03000
Br219      Br  0.92982374  0.90982346  0.00638887    -0.03900
Br220      Br  0.89277312  0.76163606  0.50487580     0.00100
C221        C  0.81830823  0.06923559  0.99780820     0.01500
C222        C  0.81214889  0.09787542  0.48513096     0.04300
C223        C  0.83428844  0.12125882  0.48582006    -0.11700
C224        C  0.86313559  0.11565157  0.99799339     0.23600
C225        C  0.86987389  0.08652382  0.00921914    -0.12300
C226        C  0.84739711  0.06350377  0.00949501     0.05100
C227        C  0.88661990  0.14018242  0.49867498     0.27500
C228        C  0.90474663  0.14606233  0.47458158    -0.13000
C229        C  0.92734657  0.16896695  0.47540531     0.05600
C230        C  0.93260492  0.18534038  0.50068449    -0.08900
C231        C  0.91446628  0.17943367  0.02475090     0.06400
C232        C  0.89133353  0.15711104  0.02366944    -0.13300
Br233      Br  0.91032615  0.07803129  0.02338147    -0.05400
Br234      Br  0.77339464  0.10523012  0.46692466     0.00200
Br235      Br  0.95201764  0.17681136  0.44224782     0.00700
Br236      Br  0.86624736  0.14938034  0.05653403    -0.03700
Br237      Br  0.85725600  0.02336283  0.02400189     0.00800
Br238      Br  0.82521783  0.16109344  0.47021761    -0.03000
Br239      Br  0.89933419  0.12172435  0.44090326    -0.03900
Br240      Br  0.92074199  0.20260605  0.05897117     0.00100
C241        C  0.57984093  0.00231726  0.32366675     0.01500
C242        C  0.60111610  0.02652342  0.32403861     0.04300
C243        C  0.62384285  0.02732034  0.34506469    -0.11700
C244        C  0.62448638  0.00470260  0.36646343     0.23600
C245        C  0.60246681  0.98122342  0.36673867    -0.12300
C246        C  0.58069003  0.97953569  0.34494417     0.05100
C247        C  0.64839028  0.00535934  0.38867517     0.27500
C248        C  0.67509399  0.98796082  0.38540545    -0.13000
C249        C  0.69725017  0.98743592  0.40702511     0.05600
C250        C  0.69274732  0.00433768  0.43216684    -0.08900
C251        C  0.66615950  0.02246303  0.43497566     0.06400
C252        C  0.64397396  0.02267976  0.41335201    -0.13300
Br253      Br  0.60208586  0.95156903  0.39719649    -0.05400
Br254      Br  0.59903390  0.05854936  0.29573832     0.00200
Br255      Br  0.73447158  0.96480736  0.40115135     0.00700
Br256      Br  0.60687057  0.04597577  0.41759326    -0.03700
Br257      Br  0.55281666  0.94531719  0.34358899     0.00800
Br258      Br  0.65425723  0.05919840  0.34446841    -0.03000
Br259      Br  0.68104012  0.96470480  0.35116836    -0.03900
Br260      Br  0.65895150  0.04624300  0.46868544     0.00100
C261        C  0.69081280  0.99687099  0.06388692     0.01500
C262        C  0.69908145  0.00618181  0.09152289     0.04300
C263        C  0.67799826  0.00378247  0.11397152    -0.11700
C264        C  0.64830852  0.99264047  0.10894386     0.23600
C265        C  0.63982069  0.98370047  0.08135116    -0.12300
C266        C  0.66094763  0.98581512  0.05888769     0.05100
C267        C  0.62573031  0.99133134  0.13248921     0.27500
C268        C  0.61849916  0.96318522  0.14571178    -0.13000
C269        C  0.59646269  0.96205677  0.16738770     0.05600
C270        C  0.58226140  0.98913165  0.17645090    -0.08900
C271        C  0.59044923  0.01738770  0.16420838     0.06400
C272        C  0.61157143  0.01842754  0.14181990    -0.13300
Br273      Br  0.59899354  0.96883861  0.07437053    -0.05400
Br274      Br  0.73970834  0.02109044  0.09922796     0.00200
Br275      Br  0.58583119  0.92360135  0.18508841     0.00700
Br276      Br  0.62071071  0.05697729  0.12364008    -0.03700
Br277      Br  0.64808905  0.97525931  0.02098531     0.00800
Br278      Br  0.68988907  0.01521570  0.15193373    -0.03000
Br279      Br  0.63892754  0.92624137  0.13433140    -0.03900
Br280      Br  0.57280468  0.05464009  0.17851175     0.00100
C281        C  0.19544022  0.91981644  0.00393240     0.01500
C282        C  0.17401826  0.91697325  0.02626435     0.04300
C283        C  0.15141331  0.89407398  0.02535607    -0.11700
C284        C  0.15160484  0.87218082  0.00357205     0.23600
C285        C  0.17459354  0.87322610  0.48275157    -0.12300
C286        C  0.19582000  0.89745356  0.48231562     0.05100
C287        C  0.12676768  0.84900005  0.50177959     0.27500
C288        C  0.12697285  0.82297290  0.01955305    -0.13000
C289        C  0.10257007  0.80196751  0.51870667     0.05600
C290        C  0.07822388  0.80646564  0.49949001    -0.08900
C291        C  0.07882904  0.83175257  0.48074081     0.06400
C292        C  0.10263803  0.85329251  0.48237690    -0.13300
Br293      Br  0.17648314  0.84156442  0.45445465    -0.05400
Br294      Br  0.17638352  0.94303155  0.05917178     0.00200
Br295      Br  0.10343725  0.76616952  0.04285617     0.00700
Br296      Br  0.10173147  0.88935606  0.45859814    -0.03700
Br297      Br  0.22364197  0.90061021  0.45070133     0.00800
Br298      Br  0.11924202  0.89340449  0.05328225    -0.03000
Br299      Br  0.16090328  0.81606457  0.04486049    -0.03900
Br300      Br  0.04664777  0.83775360  0.45325345     0.00100
C301        C  0.08192625  0.18600158  0.00197104     0.01500
C302        C  0.07850355  0.15722867  0.48888080     0.04300
C303        C  0.10258033  0.13600847  0.48954583    -0.11700
C304        C  0.13009138  0.14331347  0.00340531     0.23600
C305        C  0.13363620  0.17201323  0.01638409    -0.12300
C306        C  0.10965264  0.19338968  0.01557247     0.05100
C307        C  0.15501909  0.12043060  0.50450459     0.27500
C308        C  0.15553393  0.09840074  0.52637913    -0.13000
C309        C  0.17693482  0.07451426  0.52576395     0.05600
C310        C  0.19861042  0.07309238  0.50366138    -0.08900
C311        C  0.19889689  0.09598130  0.48239772     0.06400
C312        C  0.17687313  0.11937902  0.48265815    -0.13300
Br313      Br  0.17141766  0.18179790  0.03528686    -0.05400
Br314      Br  0.04029531  0.14603172  0.47132861     0.00200
Br315      Br  0.17437403  0.04224592  0.55383789     0.00700
Br316      Br  0.17577489  0.14953660  0.45264461    -0.03700
Br317      Br  0.11539249  0.23330905  0.03191236     0.00800
Br318      Br  0.09797085  0.09657471  0.47180611    -0.03000
Br319      Br  0.12598583  0.10039604  0.05661523    -0.03900
Br320      Br  0.22978400  0.09581648  0.45324259     0.00100
C321        C  0.30728078  0.00011870  0.42803809     0.01500
C322        C  0.33348306  0.01896472  0.42924619     0.04300
C323        C  0.35503589  0.01819252  0.40729746    -0.11700
C324        C  0.35012823  0.99933689  0.38367551     0.23600
C325        C  0.32315406  0.98206182  0.38142158    -0.12300
C326        C  0.30172342  0.98230900  0.40362078     0.05100
C327        C  0.37395942  0.99715906  0.36167246     0.27500
C328        C  0.37498988  0.01874454  0.33949275    -0.13000
C329        C  0.39922840  0.01830259  0.32002973     0.04800
C330        C  0.42202661  0.99564279  0.32230257    -0.08900
C331        C  0.42035478  0.97344252  0.34406120     0.06400
C332        C  0.39635428  0.97425522  0.36375412    -0.13300
Br333      Br  0.31632597  0.95739137  0.34817411    -0.05400
Br334      Br  0.33958344  0.04701463  0.46029010     0.00200
Br335      Br  0.40113581  0.04870567  0.29027567     0.00700
Br336      Br  0.39349707  0.94362371  0.39327119    -0.03700
Br337      Br  0.26600370  0.95669247  0.40093516     0.00800
Br338      Br  0.39183635  0.04239369  0.40979547    -0.03000
Br339      Br  0.34257950  0.04825055  0.33559786    -0.03900
Br340      Br  0.45036682  0.94133103  0.34634984     0.00100
C341        C  0.42278225  0.98085621  0.17768804     0.01500
C342        C  0.41446133  0.95438522  0.16272530     0.04300
C343        C  0.39155893  0.95593156  0.14187453    -0.11700
C344        C  0.37716242  0.98402432  0.13585759     0.23600
C345        C  0.38533379  0.01044705  0.15107129    -0.12300
C346        C  0.40791928  0.00879022  0.17216790     0.05100
C347        C  0.35474154  0.98610909  0.11239905     0.27500
C348        C  0.36497355  0.99258779  0.08473428    -0.13000
C349        C  0.34402513  0.99409298  0.06219002     0.05600
C350        C  0.31257867  0.98980277  0.06732262    -0.08900
C351        C  0.30240207  0.98286431  0.09503226     0.06400
C352        C  0.32349729  0.98102587  0.11752994    -0.13300
Br353      Br  0.36629444  0.04907118  0.14233810    -0.05400
Br354      Br  0.43464194  0.91622217  0.17089868     0.00200
Br355      Br  0.35898702  0.99963461  0.02405024     0.00700
Br356      Br  0.30980416  0.97153836  0.15544538    -0.03700
Br357      Br  0.41899184  0.04485001  0.19330514     0.00800
Br358      Br  0.38029480  0.91982447  0.12102303    -0.03000
Br359      Br  0.40792543  0.99907173  0.07783932    -0.03900
Br360      Br  0.25953582  0.97670437  0.10246995     0.00100
In361      In  0.25274874  0.99575261  0.99969682     1.36900
C362        C  0.21617652  0.94676943  0.50257565     0.77800
O363        O  0.27149637  0.97158984  0.53802528    -0.60700
O364        O  0.28973467  0.01517408  0.52721032    -0.51600
C365        C  0.28724059  0.99783705  0.95313622     0.70400
O366        O  0.25856819  0.99731500  0.95195645    -0.46400
C367        C  0.21933733  0.04654108  0.00191566     0.75100
O368        O  0.24294831  0.94573544  0.99292492    -0.58300
O369        O  0.23364682  0.03608513  0.52301451    -0.48400
O370        O  0.20828496  0.97296073  0.51069376    -0.54700
C371        C  0.29057471  0.99231316  0.54366365     0.85300
O372        O  0.29782731  0.99641939  0.97785780    -0.56600
O373        O  0.22299606  0.03158156  0.97945609    -0.59900
N374        N  0.50177355  0.99504059  0.79284466    -0.36400
N375        N  0.54902384  0.99399965  0.74956499    -0.57000
N376        N  0.50301965  0.98211916  0.70664677    -0.36400
N377        N  0.45591171  0.98605699  0.75000504    -0.57000
C378        C  0.52596638  0.00564441  0.80754971     0.27200
C379        C  0.47643174  0.00249388  0.80758587     0.27200
C380        C  0.52740825  0.98775834  0.68986189     0.27200
C381        C  0.47784798  0.98413584  0.69013687     0.27200
C382        C  0.56679257  0.99310282  0.77297091     0.35800
C383        C  0.56757829  0.98841239  0.72734230     0.35800
C384        C  0.43824066  0.98309913  0.77327477     0.35800
C385        C  0.43871883  0.97693878  0.72787680     0.35800
C386        C  0.51598304  0.01987835  0.83206144    -0.21700
C387        C  0.48462503  0.01795023  0.83204847    -0.21700
C388        C  0.51767684  0.99222992  0.66212973    -0.21700
C389        C  0.48639676  0.99012186  0.66233721    -0.21700
C390        C  0.59678962  0.98716343  0.76553829    -0.22800
C391        C  0.59736815  0.98476356  0.73656738    -0.22800
C392        C  0.40974413  0.97186825  0.76592333    -0.22800
C393        C  0.40997280  0.96821391  0.73706298    -0.22800
C394        C  0.55681563  0.00029212  0.80062553    -0.18100
C395        C  0.44639466  0.99358990  0.80046978    -0.18100
C396        C  0.44742165  0.97969878  0.69923995    -0.18100
C397        C  0.55827753  0.98798173  0.69867913    -0.18100
H398        H  0.52989996  0.03012632  0.84845031     0.14800
H399        H  0.46960984  0.02641426  0.84842294     0.14800
H400        H  0.53161026  0.99668985  0.64362503     0.14800
H401        H  0.47165277  0.99257638  0.64403680     0.14800
H402        H  0.61638775  0.98554862  0.77943626     0.13100
H403        H  0.61742418  0.98066598  0.72379303     0.13100
H404        H  0.39047352  0.96774281  0.77976139     0.13100
H405        H  0.39096664  0.96062840  0.72421535     0.13100
H406        H  0.50286170  0.98002377  0.77587026     0.26300
H407        H  0.50369076  0.97470753  0.72757809     0.26300
In408      In  0.75480147  0.99898661  0.99872431     1.36900
C409        C  0.79482023  0.04491764  0.49827775     0.77800
O410        O  0.73062822  0.02056941  0.53577356    -0.60700
O411        O  0.71775900  0.97574879  0.52396090    -0.51600
C412        C  0.71541142  0.00251051  0.95555727     0.70400
O413        O  0.72367975  0.02542383  0.96969882    -0.46400
C414        C  0.79508090  0.95247797  0.00099590     0.75100
O415        O  0.78222003  0.03510100  0.97608025    -0.58300
O416        O  0.77852950  0.96012439  0.52154716    -0.48400
O417        O  0.78632998  0.03180402  0.52084759    -0.54700
C418        C  0.71356892  0.99784837  0.54053860     0.85300
O419        O  0.72787518  0.97781744  0.96318558    -0.56600
O420        O  0.79042685  0.96833576  0.97903352    -0.59900
In421      In  0.00699872  0.24411800  0.00240868     1.36900
C422        C  0.05617823  0.20781335  0.50206457     0.77800
O423        O  0.03082783  0.28039413  0.52784226    -0.60700
O424        O  0.98675609  0.26602206  0.54128817    -0.51600
C425        C  0.00468348  0.28131314  0.95731020     0.70400
O426        O  0.00960415  0.25303414  0.95522482    -0.46400
C427        C  0.95816609  0.20729916  0.00234947     0.75100
O428        O  0.04281353  0.21641029  0.97980282    -0.58300
O429        O  0.98004543  0.20401557  0.51936317    -0.48400
O430        O  0.04518680  0.21868290  0.52447418    -0.54700
C431        C  0.00937126  0.28341903  0.54544963     0.85300
O432        O  0.00149854  0.29034478  0.98241710    -0.56600
O433        O  0.96039963  0.23029080  0.98638346    -0.59900
N434        N  0.01166831  0.49740803  0.70780249    -0.36400
N435        N  0.00575104  0.45062415  0.75178870    -0.57000
N436        N  0.99842761  0.49798383  0.79416049    -0.36400
N437        N  0.00160141  0.54483202  0.74997138    -0.57000
C438        C  0.00767255  0.47221800  0.69161673     0.27200
C439        C  0.00763798  0.52211364  0.69081141     0.27200
C440        C  0.99281709  0.47279707  0.81018618     0.27200
C441        C  0.98869103  0.52259052  0.80889864     0.27200
C442        C  0.01359390  0.43280455  0.72961861     0.35800
C443        C  0.00937421  0.43335595  0.77543055     0.35800
C444        C  0.00968846  0.56272582  0.72770458     0.35800
C445        C  0.00097118  0.56311444  0.77302336     0.35800
C446        C  0.00145303  0.48107466  0.66391258    -0.21700
C447        C  0.00153143  0.51253733  0.66338904    -0.21700
C448        C  0.97952848  0.48151259  0.83555414    -0.21700
C449        C  0.97691835  0.51289685  0.83474350    -0.21700
C450        C  0.02183801  0.40397498  0.73914245    -0.22800
C451        C  0.01951222  0.40441688  0.76816405    -0.22800
C452        C  0.01385196  0.59259641  0.73657904    -0.22800
C453        C  0.00832650  0.59284973  0.76526921    -0.22800
C454        C  0.01141704  0.44152961  0.70077577    -0.18100
C455        C  0.01076618  0.55304086  0.69911174    -0.18100
C456        C  0.99258768  0.55366784  0.80076674    -0.18100
C457        C  0.00115985  0.44240911  0.80321970    -0.18100
H458        H  0.99763308  0.46641350  0.64582842     0.14800
H459        H  0.99762163  0.52673340  0.64486856     0.14800
H460        H  0.97285365  0.46683042  0.85303732     0.14800
H461        H  0.96794288  0.52703350  0.85154507     0.14800
H462        H  0.02871347  0.38459991  0.72650426     0.13100
H463        H  0.02413043  0.38535415  0.78224152     0.13100
H464        H  0.01975404  0.61225085  0.72364704     0.13100
H465        H  0.00935399  0.61272113  0.77881780     0.13100
H466        H  0.01997853  0.49781354  0.72838524     0.26300
H467        H  0.01154509  0.49861615  0.77591933     0.26300
In468      In  0.00357222  0.74832055  0.99897896     1.36900
C469        C  0.95919103  0.78988409  0.50198659     0.77800
O470        O  0.99159156  0.72713662  0.54086371    -0.60700
O471        O  0.03063040  0.71052486  0.51953368    -0.51600
C472        C  0.99151618  0.71140692  0.95529913     0.70400
O473        O  0.97091583  0.72099808  0.97154964    -0.46400
C474        C  0.05185165  0.78528414  0.99940641     0.75100
O475        O  0.98030739  0.79126886  0.98389201    -0.58300
O476        O  0.03813647  0.77725333  0.52174551    -0.48400
O477        O  0.96054032  0.76695683  0.51825039    -0.54700
C478        C  0.01354243  0.70862114  0.54090673     0.85300
O479        O  0.01778533  0.72083893  0.96140295    -0.56600
O480        O  0.04088569  0.77423359  0.97696356    -0.59900
C481        C  0.98943809  0.57756224  0.82314332     0.01500
C482        C  0.01305955  0.58154518  0.84313449     0.04300
C483        C  0.01045971  0.60382371  0.86437017    -0.11700
C484        C  0.98483616  0.62316586  0.86509479     0.23600
C485        C  0.96125140  0.61945130  0.84509112    -0.12300
C486        C  0.96326103  0.59631099  0.82445385     0.05100
C487        C  0.98305248  0.64740887  0.88697921     0.27500
C488        C  0.96769942  0.64180674  0.91273189    -0.13000
C489        C  0.96878486  0.66355836  0.93466639     0.05600
C490        C  0.98598764  0.69066216  0.93111247    -0.08900
C491        C  0.00007123  0.69683216  0.90475596     0.06400
C492        C  0.99836275  0.67537161  0.88269648    -0.13300
Br493      Br  0.92637628  0.64624641  0.84619771    -0.05400
Br494      Br  0.04933994  0.55675610  0.84114909     0.00200
Br495      Br  0.94816055  0.65511196  0.97000131     0.00700
Br496      Br  0.01738723  0.68392798  0.84661273    -0.03700
Br497      Br  0.92991586  0.58982988  0.79849507     0.00800
Br498      Br  0.04179025  0.60762360  0.89292817    -0.03000
Br499      Br  0.94629449  0.60363825  0.91817846    -0.03900
Br500      Br  0.02118427  0.73508771  0.89848915     0.00100
C501        C  0.01833467  0.68632805  0.56408185     0.01500
C502        C  0.01769102  0.69622291  0.59248493     0.04300
C503        C  0.01810599  0.67471873  0.61476374    -0.11700
C504        C  0.01990792  0.64323832  0.60879258     0.23600
C505        C  0.02208027  0.63340967  0.58041204    -0.12300
C506        C  0.02136573  0.65491237  0.55806272     0.05100
C507        C  0.01786178  0.62046290  0.63225811     0.27500
C508        C  0.04444608  0.60694471  0.64351639    -0.13000
C509        C  0.04214006  0.58460722  0.66508247     0.05600
C510        C  0.01336850  0.57676321  0.67635898    -0.08900
C511        C  0.98692047  0.59105820  0.66573158     0.06400
C512        C  0.98909169  0.61234774  0.64334061    -0.13300
Br513      Br  0.02434380  0.59031866  0.57217830    -0.05400
Br514      Br  0.01724210  0.73937795  0.60093742     0.00200
Br515      Br  0.07824794  0.56451094  0.67915403     0.00700
Br516      Br  0.95260896  0.63018330  0.62747858    -0.03700
Br517      Br  0.02243608  0.64101140  0.51924329     0.00800
Br518      Br  0.01495200  0.68829327  0.65350701    -0.03000
Br519      Br  0.08390889  0.61950067  0.62961128    -0.03900
Br520      Br  0.94769724  0.58119247  0.68184945     0.00100
C521        C  0.00037235  0.41832957  0.82590698     0.01500
C522        C  0.02258705  0.41798219  0.84765296     0.04300
C523        C  0.02240319  0.39454733  0.86823822    -0.11700
C524        C  0.00175832  0.36999612  0.86585410     0.23600
C525        C  0.98008936  0.36984155  0.84379619    -0.12300
C526        C  0.97837471  0.39470604  0.82480154     0.05100
C527        C  0.00127294  0.34571348  0.88796442     0.27500
C528        C  0.02249291  0.32158352  0.88739028    -0.13000
C529        C  0.02320604  0.29989657  0.90961984     0.05600
C530        C  0.00265249  0.30240074  0.93262115    -0.08900
C531        C  0.98068978  0.32608377  0.93248528     0.06400
C532        C  0.98019551  0.34770332  0.91032694    -0.13300
Br533      Br  0.95293789  0.33538658  0.83967921    -0.05400
Br534      Br  0.05380891  0.44903455  0.84899572     0.00200
Br535      Br  0.05368205  0.26807188  0.90902962     0.00700
Br536      Br  0.95108513  0.38081871  0.91079623    -0.03700
Br537      Br  0.94517165  0.39699431  0.79799870     0.00800
Br538      Br  0.04976719  0.39632950  0.90031439    -0.03000
Br539      Br  0.05109431  0.31894219  0.85641636    -0.03900
Br540      Br  0.95017268  0.32867914  0.96190651     0.00100
C541        C  0.01201173  0.41698078  0.67891532     0.01500
C542        C  0.98443729  0.40400503  0.66928507     0.04300
C543        C  0.98475310  0.38169665  0.64790535    -0.11700
C544        C  0.01269526  0.37147333  0.63672394     0.23600
C545        C  0.04034366  0.38373802  0.64692732    -0.12300
C546        C  0.03998853  0.40672068  0.66774317     0.05100
C547        C  0.01280443  0.34868383  0.61346165     0.27500
C548        C  0.00919748  0.31730742  0.61954181    -0.13000
C549        C  0.00797605  0.29594473  0.59729163     0.05600
C550        C  0.01057596  0.30585573  0.56885683    -0.08900
C551        C  0.01444819  0.33730596  0.56285848     0.06400
C552        C  0.01548766  0.35863089  0.58511056    -0.13300
Br553      Br  0.07858766  0.36907617  0.63211387    -0.05400
Br554      Br  0.94620494  0.41688332  0.68542486     0.00200
Br555      Br  0.00392814  0.25296152  0.60586292     0.00700
Br556      Br  0.01999577  0.40172311  0.57692297    -0.03700
Br557      Br  0.07774317  0.42423411  0.68100274     0.00800
Br558      Br  0.94689197  0.36558828  0.63328759    -0.03000
Br559      Br  0.00602905  0.30378450  0.65846025    -0.03900
Br560      Br  0.01674982  0.35161693  0.52414063     0.00100
C561        C  0.81819757  0.92736332  0.00254745     0.01500
C562        C  0.83356901  0.92055407  0.52838098     0.04300
C563        C  0.85624526  0.89773345  0.52931674    -0.11700
C564        C  0.86395114  0.88152841  0.00465021     0.23600
C565        C  0.84847049  0.88769883  0.97907367    -0.12300
C566        C  0.82549199  0.91018551  0.97803036     0.05100
C567        C  0.88842091  0.85798291  0.50549095     0.27500
C568        C  0.91931970  0.86693158  0.50520252    -0.13000
C569        C  0.94247110  0.84468066  0.50425683     0.05600
C570        C  0.93486384  0.81326907  0.50393365    -0.08900
C571        C  0.90391050  0.80435699  0.50534804     0.06400
C572        C  0.88079850  0.82666105  0.00604852    -0.13300
Br573      Br  0.85899181  0.86512522  0.94532202    -0.05400
Br574      Br  0.82483142  0.94255476  0.56284454     0.00200
Br575      Br  0.98461591  0.85748925  0.50474428     0.00700
Br576      Br  0.83850722  0.81441196  0.00763074    -0.03700
Br577      Br  0.80287870  0.91542051  0.94314483     0.00800
Br578      Br  0.87725608  0.88863031  0.56444938    -0.03000
Br579      Br  0.92982500  0.90982353  0.50638661    -0.03900
Br580      Br  0.89277365  0.76163567  0.00487952     0.00100
C581        C  0.81830836  0.06923549  0.49780726     0.01500
C582        C  0.81214809  0.09787611  0.98513341     0.04300
C583        C  0.83428796  0.12125929  0.98582193    -0.11700
C584        C  0.86313530  0.11565177  0.49799324     0.23600
C585        C  0.86987312  0.08652463  0.50922050    -0.12300
C586        C  0.84739646  0.06350448  0.50949619     0.05100
C587        C  0.88662034  0.14018222  0.99867505     0.27500
C588        C  0.90474532  0.14606389  0.97458080    -0.13000
C589        C  0.92734499  0.16896884  0.97540432     0.05600
C590        C  0.93260489  0.18534082  0.00068404    -0.08900
C591        C  0.91446439  0.17943506  0.52475048     0.06400
C592        C  0.89133140  0.15711271  0.52366874    -0.13300
Br593      Br  0.91032467  0.07803317  0.52338518    -0.05400
Br594      Br  0.77339232  0.10523183  0.96693024     0.00200
Br595      Br  0.95201384  0.17681557  0.94224580     0.00700
Br596      Br  0.86624253  0.14938418  0.55653201    -0.03700
Br597      Br  0.85725455  0.02336458  0.52400616     0.00800
Br598      Br  0.82521682  0.16109439  0.97022072    -0.03000
Br599      Br  0.89933090  0.12172792  0.94090147    -0.03900
Br600      Br  0.92073779  0.20260960  0.55896979     0.00100
C601        C  0.57984276  0.00231856  0.82366630     0.01500
C602        C  0.60111864  0.02652418  0.82403795     0.04300
C603        C  0.62384501  0.02732104  0.84506439    -0.11700
C604        C  0.62448758  0.00470376  0.86646356     0.23600
C605        C  0.60246734  0.98122526  0.86673904    -0.12300
C606        C  0.58069089  0.97953753  0.84494428     0.05100
C607        C  0.64839126  0.00536020  0.88867546     0.27500
C608        C  0.67509428  0.98796053  0.88540632    -0.13000
C609        C  0.69725033  0.98743544  0.90702609     0.05600
C610        C  0.69274803  0.00433815  0.93216736    -0.08900
C611        C  0.66616080  0.02246449  0.93497561     0.06400
C612        C  0.64397541  0.02268148  0.91335183    -0.13300
Br613      Br  0.60208487  0.95157186  0.89719766    -0.05400
Br614      Br  0.59903808  0.05854946  0.79573691     0.00200
Br615      Br  0.73447085  0.96480538  0.90115292     0.00700
Br616      Br  0.60687300  0.04597929  0.91759225    -0.03700
Br617      Br  0.55281700  0.94531941  0.84358946     0.00800
Br618      Br  0.65426008  0.05919850  0.84446826    -0.03000
Br619      Br  0.68103958  0.96470308  0.85116991    -0.03900
Br620      Br  0.65895326  0.04624566  0.96868473     0.00100
C621        C  0.69081393  0.99687025  0.56388647     0.01500
C622        C  0.69908221  0.00618223  0.59152221     0.04300
C623        C  0.67799901  0.00378299  0.61397083    -0.11700
C624        C  0.64830971  0.99263963  0.60894342     0.23600
C625        C  0.63982231  0.98369831  0.58135098    -0.12300
C626        C  0.66094920  0.98581312  0.55888750     0.05100
C627        C  0.62573139  0.99133076  0.63248867     0.27500
C628        C  0.61850064  0.96318493  0.64571191    -0.13000
C629        C  0.59646403  0.96205668  0.66738766     0.05600
C630        C  0.58226246  0.98913159  0.67645037    -0.08900
C631        C  0.59044979  0.01738744  0.66420712     0.06400
C632        C  0.61157194  0.01842697  0.64181856    -0.13300
Br633      Br  0.59899574  0.96883463  0.57437062    -0.05400
Br634      Br  0.73970850  0.02109262  0.59922694     0.00200
Br635      Br  0.58583244  0.92360141  0.68508854     0.00700
Br636      Br  0.62071035  0.05697626  0.62363744    -0.03700
Br637      Br  0.64809119  0.97525554  0.52098538     0.00800
Br638      Br  0.68988920  0.01521832  0.65193272    -0.03000
Br639      Br  0.63893000  0.92624118  0.63433292    -0.03900
Br640      Br  0.57280438  0.05463996  0.67850929     0.00100
C641        C  0.19543875  0.91981683  0.50393343     0.01500
C642        C  0.17401554  0.91697457  0.52626448     0.04300
C643        C  0.15141061  0.89407527  0.52535589    -0.11700
C644        C  0.15160347  0.87218111  0.50357275     0.23600
C645        C  0.17459378  0.87322666  0.98274980    -0.12300
C646        C  0.19582047  0.89745394  0.98231391     0.05100
C647        C  0.12676872  0.84900008  0.00177910     0.27500
C648        C  0.12697120  0.82297370  0.51955457    -0.13000
C649        C  0.10257122  0.80196727  0.01870572     0.05600
C650        C  0.07822402  0.80646670  0.99949047    -0.08900
C651        C  0.07882845  0.83175443  0.98074220     0.06400
C652        C  0.10263798  0.85329382  0.98237779    -0.13300
Br653      Br  0.17648145  0.84156642  0.95445137    -0.05400
Br654      Br  0.17637909  0.94303391  0.55917136     0.00200
Br655      Br  0.10343555  0.76617075  0.54285838     0.00700
Br656      Br  0.10173089  0.88935821  0.95860014    -0.03700
Br657      Br  0.22364115  0.90061172  0.95069870     0.00800
Br658      Br  0.11923784  0.89340670  0.55328061    -0.03000
Br659      Br  0.16090019  0.81606737  0.54486418    -0.03900
Br660      Br  0.04664546  0.83775712  0.95325691     0.00100
C661        C  0.08192566  0.18600015  0.50197471     0.01500
C662        C  0.07850503  0.15723111  0.98887513     0.04300
C663        C  0.10258193  0.13601105  0.98953993    -0.11700
C664        C  0.13009064  0.14331180  0.50340931     0.23600
C665        C  0.13363631  0.17201237  0.51638632    -0.12300
C666        C  0.10965280  0.19338892  0.51557464     0.05100
C667        C  0.15501953  0.12043194  0.00450124     0.27500
C668        C  0.15553280  0.09840142  0.02637525    -0.13000
C669        C  0.17693335  0.07451461  0.02576052     0.05600
C670        C  0.19861016  0.07309297  0.00365894    -0.08900
C671        C  0.19889806  0.09598244  0.98239576     0.06400
C672        C  0.17687473  0.11938061  0.98265579    -0.13300
Br673      Br  0.17141909  0.18179804  0.53528650    -0.05400
Br674      Br  0.04029772  0.14603531  0.97132062     0.00200
Br675      Br  0.17437049  0.04224557  0.05383357     0.00700
Br676      Br  0.17577867  0.14953921  0.95264304    -0.03700
Br677      Br  0.11539395  0.23330935  0.53191199     0.00800
Br678      Br  0.09797350  0.09657853  0.97179771    -0.03000
Br679      Br  0.12598848  0.10039548  0.55662038    -0.03900
Br680      Br  0.22978637  0.09581773  0.95324168     0.00100
C681        C  0.30728152  0.00011976  0.92803707     0.01500
C682        C  0.33348308  0.01896680  0.92924522     0.04300
C683        C  0.35503619  0.01819519  0.90729670    -0.11700
C684        C  0.35012982  0.99933871  0.88367512     0.23600
C685        C  0.32315642  0.98206244  0.88142114    -0.12300
C686        C  0.30172524  0.98230943  0.90361993     0.05100
C687        C  0.37396160  0.99716121  0.86167253     0.27500
C688        C  0.37499153  0.01874594  0.83949215    -0.13000
C689        C  0.39922998  0.01830386  0.82002905     0.04800
C690        C  0.42202880  0.99564474  0.82230259    -0.08900
C691        C  0.42035771  0.97344541  0.84406209     0.06400
C692        C  0.39635722  0.97425822  0.86375500    -0.13300
Br693      Br  0.31633018  0.95739059  0.84817421    -0.05400
Br694      Br  0.33958218  0.04701729  0.96028891     0.00200
Br695      Br  0.40113640  0.04870578  0.79027386     0.00700
Br696      Br  0.39350104  0.94362770  0.89327302    -0.03700
Br697      Br  0.26600612  0.95669213  0.90093378     0.00800
Br698      Br  0.39183518  0.04239861  0.90979447    -0.03000
Br699      Br  0.34258028  0.04825073  0.83559623    -0.03900
Br700      Br  0.45037062  0.94133480  0.84635182     0.00100
C701        C  0.42278310  0.98085567  0.67768859     0.01500
C702        C  0.41446189  0.95438465  0.66272606     0.04300
C703        C  0.39155908  0.95593086  0.64187567    -0.11700
C704        C  0.37716245  0.98402358  0.63585883     0.23600
C705        C  0.38533435  0.01044646  0.65107209    -0.12300
C706        C  0.40791996  0.00878963  0.67216863     0.05100
C707        C  0.35474130  0.98610825  0.61240046     0.27500
C708        C  0.36497321  0.99258611  0.58473554    -0.13000
C709        C  0.34402468  0.99409151  0.56219141     0.05600
C710        C  0.31257818  0.98980210  0.56732421    -0.08900
C711        C  0.30240162  0.98286425  0.59503400     0.06400
C712        C  0.32349697  0.98102573  0.61753161    -0.13300
Br713      Br  0.36629591  0.04907084  0.64233820    -0.05400
Br714      Br  0.43464232  0.91622157  0.67089960     0.00200
Br715      Br  0.35898648  0.99963244  0.52405153     0.00700
Br716      Br  0.30980387  0.97153872  0.65544716    -0.03700
Br717      Br  0.41899220  0.04484923  0.69330625     0.00800
Br718      Br  0.38029489  0.91982368  0.62102437    -0.03000
Br719      Br  0.40792517  0.99906867  0.57784021    -0.03900
Br720      Br  0.25953528  0.97670539  0.60247194     0.00100
loop_ 
_geom_bond_atom_site_label_1 
_geom_bond_atom_site_label_2 
_geom_bond_distance 
_geom_bond_site_symmetry_2 
_ccdc_geom_bond_type 
In1          O12   2.230       .  S
In1           O6   2.266       .  S
In1           O8   2.253       .  S
In1          O13   2.249   1_565  S
In1         O363   2.244       .  S
In1         O364   2.244   1_565  S
In1         O369   2.248   1_565  S
In1         O370   2.248       .  S
C2           O10   1.259       .  A
C2          O368   1.260   1_554  A
C2          C281   1.489       .  S
O3         In361   2.244   1_554  S
O3           C11   1.262       .  A
O4         In361   2.244   1_544  S
O4           C11   1.263   1_545  A
C5           O12   1.255       .  A
C5            O6   1.259       .  A
C5          C321   1.477   1_565  S
C7           O13   1.258       .  A
C7          O369   1.260       .  A
C7          C310   1.479       .  S
O8          C362   1.260       .  A
O9         In361   2.248   1_544  S
O9          C367   1.260       .  A
O10        In361   2.248   1_554  S
C11         C350   1.478       .  S
N14          C19   1.353   1_565  A
N14          C18   1.349   1_565  A
N14          H46   1.039       .  S
N15          C22   1.350       .  A
N15          C23   1.351       .  A
N16          C21   1.353       .  A
N16          C20   1.352       .  A
N16          H47   1.037       .  S
N17          C24   1.349       .  A
N17          C25   1.348       .  A
C18          C26   1.387       .  A
C18          C34   1.412       .  A
C19          C35   1.413   1_545  A
C19          C27   1.387       .  A
C20          C28   1.388       .  A
C20          C37   1.415       .  A
C21          C36   1.415       .  A
C21          C29   1.387       .  A
C22          C34   1.413   1_565  A
C22          C30   1.387       .  A
C23          C37   1.411       .  A
C23          C31   1.385       .  A
C24          C32   1.386       .  A
C24          C35   1.410       .  A
C25          C33   1.385       .  A
C25          C36   1.408       .  A
C26          C27   1.377       .  A
C26          H38   1.083       .  S
C27          H39   1.082       .  S
C28          C29   1.375       .  A
C28          H40   1.082       .  S
C29          H41   1.082       .  S
C30          C31   1.371       .  A
C30          H42   1.082       .  S
C31          H43   1.082       .  S
C32          C33   1.371       .  A
C32          H44   1.082       .  S
C33          H45   1.082       .  S
C34         C241   1.485       .  S
C35         C330   1.488       .  S
C36         C341   1.483       .  S
C37         C270   1.486       .  S
In48         O59   2.251       .  S
In48         O53   2.249   1_565  S
In48         O55   2.249   1_565  S
In48         O60   2.264       .  S
In48        O410   2.256   1_565  S
In48        O411   2.252       .  S
In48        O416   2.262       .  S
In48        O417   2.251   1_565  S
C49          O57   1.262   1_556  A
C49         O415   1.260       .  A
C49         C221   1.479       .  S
O50        In408   2.256   1_544  S
O50          C58   1.262   1_545  A
O51        In408   2.252   1_554  S
O51          C58   1.260       .  A
C52          O59   1.262   1_545  A
C52          O53   1.259       .  A
C52         C250   1.485       .  S
C54          O60   1.260       .  A
C54         O416   1.258       .  A
C54         C201   1.498       .  S
O55         C409   1.260       .  A
O56        In408   2.262   1_554  S
O56         C414   1.258       .  A
O57        In408   2.251   1_544  S
C58         C261   1.487       .  S
In61         O72   2.240       .  S
In61         O66   2.259       .  S
In61         O68   2.258       .  S
In61         O73   2.260   1_455  S
In61        O423   2.249       .  S
In61        O424   2.256   1_455  S
In61        O429   2.257   1_455  S
In61        O430   2.262       .  S
C62          O70   1.258       .  A
C62         O428   1.257   1_554  A
C62         C301   1.480       .  S
O63        In421   2.249       .  S
O63          C71   1.263       .  A
O64        In421   2.256   1_655  S
O64          C71   1.265   1_655  A
C65          O72   1.258       .  A
C65          O66   1.261       .  A
C65         C170   1.484       .  S
C67          O73   1.257       .  A
C67         O429   1.258       .  A
C67         C230   1.477       .  S
O68         C422   1.257       .  A
O69        In421   2.257   1_655  S
O69         C427   1.258       .  A
O70        In421   2.262       .  S
C71         C190   1.482       .  S
N74          C79   1.353       .  A
N74          C78   1.355       .  A
N74         H106   1.036       .  S
N75          C82   1.352       .  A
N75          C83   1.352       .  A
N76          C81   1.354       .  A
N76          C80   1.355       .  A
N76         H107   1.035   1_655  S
N77          C84   1.353       .  A
N77          C85   1.353       .  A
C78          C86   1.387       .  A
C78          C94   1.418       .  A
C79          C95   1.417       .  A
C79          C87   1.387       .  A
C80          C88   1.387       .  A
C80          C97   1.420   1_655  A
C81          C96   1.421       .  A
C81          C89   1.388       .  A
C82          C94   1.413       .  A
C82          C90   1.385       .  A
C83          C97   1.418       .  A
C83          C91   1.387       .  A
C84          C92   1.386       .  A
C84          C95   1.416       .  A
C85          C93   1.387       .  A
C85          C96   1.418   1_455  A
C86          C87   1.377       .  A
C86          H98   1.082   1_455  S
C87          H99   1.082   1_455  S
C88          C89   1.378       .  A
C88         H100   1.082       .  S
C89         H101   1.082       .  S
C90          C91   1.372       .  A
C90         H102   1.082       .  S
C91         H103   1.082       .  S
C92          C93   1.374       .  A
C92         H104   1.082       .  S
C93         H105   1.082       .  S
C94         C181   1.493       .  S
C95         C150   1.493       .  S
C96         C121   1.496       .  S
C97         C161   1.497       .  S
In108       O119   2.236       .  S
In108       O113   2.271   1_455  S
In108       O115   2.251   1_455  S
In108       O120   2.241       .  S
In108       O470   2.239   1_455  S
In108       O471   2.251       .  S
In108       O476   2.248       .  S
In108       O477   2.251   1_455  S
C109        O117   1.261       .  A
C109        O475   1.261   1_554  A
C109        C210   1.483       .  S
O110       In468   2.239   1_654  S
O110        C118   1.259   1_655  A
O111       In468   2.251   1_554  S
O111        C118   1.259       .  A
C112        O119   1.256   1_655  A
C112        O113   1.259       .  A
C112        C130   1.481       .  S
C114        O120   1.260       .  A
C114        O476   1.261       .  A
C114        C290   1.480       .  S
O115        C469   1.261       .  A
O116       In468   2.248   1_554  S
O116        C474   1.261   1_554  A
O117       In468   2.251   1_654  S
C118        C141   1.476       .  S
C121        C122   1.411   1_655  A
C121        C126   1.414       .  A
C122        C123   1.406       .  A
C122       Br134   1.930       .  S
C123        C124   1.408   1_455  A
C123       Br138   1.930       .  S
C124        C127   1.486       .  S
C124        C125   1.408       .  A
C125        C126   1.411       .  A
C125       Br133   1.930       .  S
C126       Br137   1.927       .  S
C127        C128   1.409       .  A
C127        C132   1.408       .  A
C128        C129   1.410       .  A
C128       Br139   1.930       .  S
C129        C130   1.413       .  A
C129       Br135   1.930       .  S
C130        C131   1.413   1_655  A
C131        C132   1.407   1_455  A
C131       Br140   1.932       .  S
C132       Br136   1.930   1_655  S
C141        C142   1.410       .  A
C141        C146   1.411       .  A
C142        C143   1.406       .  A
C142       Br154   1.932       .  S
C143        C144   1.410       .  A
C143       Br158   1.929       .  S
C144        C147   1.487       .  S
C144        C145   1.411       .  A
C145        C146   1.409       .  A
C145       Br153   1.930       .  S
C146       Br157   1.932       .  S
C147        C148   1.410       .  A
C147        C152   1.410   1_455  A
C148        C149   1.410       .  A
C148       Br159   1.929       .  S
C149        C150   1.411       .  A
C149       Br155   1.928       .  S
C150        C151   1.409   1_455  A
C151        C152   1.407       .  A
C151       Br160   1.928       .  S
C152       Br156   1.929       .  S
C161        C162   1.413       .  A
C161        C166   1.413   1_455  A
C162        C163   1.408       .  A
C162       Br174   1.928       .  S
C163        C164   1.408       .  A
C163       Br178   1.931       .  S
C164        C167   1.484       .  S
C164        C165   1.408   1_455  A
C165        C166   1.407       .  A
C165       Br173   1.929       .  S
C166       Br177   1.929       .  S
C167        C168   1.409       .  A
C167        C172   1.406   1_455  A
C168        C169   1.410       .  A
C168       Br179   1.930       .  S
C169        C170   1.416       .  A
C169       Br175   1.932       .  S
C170        C171   1.416   1_455  A
C171        C172   1.405       .  A
C171       Br180   1.932       .  S
C172       Br176   1.933       .  S
C181        C182   1.410   1_455  A
C181        C186   1.411       .  A
C182        C183   1.407       .  A
C182       Br194   1.928       .  S
C183        C184   1.409   1_655  A
C183       Br198   1.930       .  S
C184        C187   1.486       .  S
C184        C185   1.410       .  A
C185        C186   1.409       .  A
C185       Br193   1.929       .  S
C186       Br197   1.928       .  S
C187        C188   1.409       .  A
C187        C192   1.408       .  A
C188        C189   1.410       .  A
C188       Br199   1.930       .  S
C189        C190   1.411       .  A
C189       Br195   1.929       .  S
C190        C191   1.413       .  A
C191        C192   1.408       .  A
C191       Br200   1.929       .  S
C192       Br196   1.932       .  S
C201        C206   1.419       .  A
C201        C562   1.422       .  A
C202        C203   1.411       .  A
C202        C561   1.422       .  A
C202       Br214   1.932       .  S
C203        C564   1.407       .  A
C203       Br218   1.934       .  S
C204        C567   1.489       .  S
C204        C205   1.408       .  A
C204        C563   1.407       .  A
C205        C206   1.410       .  A
C205       Br213   1.934       .  S
C206       Br217   1.932       .  S
C207        C564   1.489       .  S
C207        C208   1.410       .  A
C207        C572   1.410       .  A
C208        C209   1.409       .  A
C208       Br219   1.932       .  S
C209        C210   1.414       .  A
C209       Br215   1.930       .  S
C210        C211   1.413       .  A
C211        C572   1.409       .  A
C211       Br580   1.931       .  S
C212        C567   1.410       .  A
C212        C571   1.409       .  A
C212       Br216   1.931       .  S
Br220       C571   1.931       .  S
C221        C226   1.411   1_556  A
C221        C582   1.412       .  A
C222        C223   1.409       .  A
C222        C581   1.412       .  A
C222       Br234   1.930       .  S
C223        C584   1.410       .  A
C223       Br238   1.930       .  S
C224        C587   1.486       .  S
C224        C225   1.409   1_556  A
C224        C583   1.410       .  A
C225        C226   1.408       .  A
C225       Br233   1.931       .  S
C226       Br237   1.931       .  S
C227        C584   1.486       .  S
C227        C228   1.409       .  A
C227        C592   1.410       .  A
C228        C229   1.409       .  A
C228       Br239   1.931       .  S
C229        C230   1.412       .  A
C229       Br235   1.931       .  S
C230        C591   1.409       .  A
C231        C232   1.408       .  A
C231        C590   1.409       .  A
C231       Br240   1.929       .  S
C232        C587   1.410   1_554  A
C232       Br236   1.929       .  S
C241        C242   1.410       .  A
C241        C246   1.411   1_545  A
C242        C243   1.405       .  A
C242       Br254   1.932       .  S
C243        C244   1.409       .  A
C243       Br258   1.928       .  S
C244        C247   1.481       .  S
C244        C245   1.408   1_545  A
C245        C246   1.404       .  A
C245       Br253   1.930       .  S
C246       Br257   1.932       .  S
C247        C248   1.407   1_545  A
C247        C252   1.406       .  A
C248        C249   1.407       .  A
C248       Br259   1.931       .  S
C249        C250   1.415   1_565  A
C249       Br255   1.931       .  S
C250        C251   1.418       .  A
C251        C252   1.408       .  A
C251       Br260   1.931       .  S
C252       Br256   1.933       .  S
C261        C262   1.414   1_565  A
C261        C266   1.415       .  A
C262        C263   1.409       .  A
C262       Br274   1.931       .  S
C263        C264   1.409   1_545  A
C263       Br278   1.932       .  S
C264        C267   1.489       .  S
C264        C265   1.410       .  A
C265        C266   1.410       .  A
C265       Br273   1.932       .  S
C266       Br277   1.931       .  S
C267        C268   1.413       .  A
C267        C272   1.412   1_565  A
C268        C269   1.408       .  A
C268       Br279   1.928       .  S
C269        C270   1.408       .  A
C269       Br275   1.930       .  S
C270        C271   1.407   1_565  A
C271        C272   1.405       .  A
C271       Br280   1.931       .  S
C272       Br276   1.929       .  S
C281        C282   1.416       .  A
C281        C646   1.417   1_554  A
C282        C283   1.409       .  A
C282       Br294   1.933       .  S
C283        C284   1.408       .  A
C283       Br298   1.931       .  S
C284        C647   1.489       .  S
C284        C645   1.408   1_554  A
C285        C286   1.409       .  A
C285        C644   1.408       .  A
C285       Br293   1.930       .  S
C286        C641   1.417       .  A
C286       Br297   1.931       .  S
C287        C644   1.489       .  S
C287        C292   1.410       .  A
C287        C648   1.410       .  A
C288        C647   1.410       .  A
C288        C649   1.410       .  A
C288       Br299   1.929       .  S
C289        C290   1.413       .  A
C289        C648   1.410       .  A
C289       Br655   1.932       .  S
C290        C291   1.412       .  A
C291        C292   1.407       .  A
C291       Br300   1.932       .  S
C292       Br296   1.931       .  S
Br295       C649   1.932       .  S
C301        C306   1.412       .  A
C301        C662   1.413   1_554  A
C302        C303   1.407       .  A
C302        C661   1.413       .  A
C302       Br314   1.931       .  S
C303        C664   1.408       .  A
C303       Br318   1.931       .  S
C304        C667   1.484       .  S
C304        C305   1.408       .  A
C304        C663   1.408   1_554  A
C305        C306   1.409       .  A
C305       Br313   1.929       .  S
C306       Br317   1.928       .  S
C307        C664   1.484       .  S
C307        C308   1.408       .  A
C307        C312   1.408       .  A
C308        C309   1.406       .  A
C308       Br679   1.930       .  S
C309        C310   1.413       .  A
C309       Br315   1.933       .  S
C310        C311   1.413       .  A
C311        C312   1.409       .  A
C311       Br320   1.931       .  S
C312       Br316   1.930       .  S
Br319       C668   1.930       .  S
C321        C322   1.414       .  A
C321        C326   1.414   1_545  A
C322        C323   1.403       .  A
C322       Br334   1.933       .  S
C323        C324   1.406   1_545  A
C323       Br338   1.932       .  S
C324        C327   1.477       .  S
C324        C325   1.407       .  A
C325        C326   1.407       .  A
C325       Br333   1.931       .  S
C326       Br337   1.928       .  S
C327        C328   1.406   1_565  A
C327        C332   1.407       .  A
C328        C329   1.405       .  A
C328       Br339   1.930       .  S
C329        C330   1.413   1_545  A
C329       Br335   1.929       .  S
C330        C331   1.411       .  A
C331        C332   1.405       .  A
C331       Br340   1.929       .  S
C332       Br336   1.931       .  S
C341        C342   1.407       .  A
C341        C346   1.409   1_565  A
C342        C343   1.406       .  A
C342       Br354   1.928       .  S
C343        C344   1.410       .  A
C343       Br358   1.928       .  S
C344        C347   1.481       .  S
C344        C345   1.409   1_565  A
C345        C346   1.404       .  A
C345       Br353   1.928       .  S
C346       Br357   1.931       .  S
C347        C348   1.407       .  A
C347        C352   1.408       .  A
C348        C349   1.405       .  A
C348       Br359   1.932       .  S
C349        C350   1.412       .  A
C349       Br355   1.928       .  S
C350        C351   1.412       .  A
C351        C352   1.409       .  A
C351       Br360   1.930       .  S
C352       Br356   1.929       .  S
In361       O372   2.230       .  S
In361       O366   2.266       .  S
In361       O368   2.253       .  S
In361       O373   2.249   1_565  S
C362        O370   1.259       .  A
C362        C641   1.489       .  S
O363        C371   1.262       .  A
O364        C371   1.263   1_545  A
C365        O372   1.255       .  A
C365        O366   1.259       .  A
C365        C681   1.477   1_565  S
C367        O373   1.258   1_554  A
C367        C670   1.479       .  S
C371        C710   1.478       .  S
N374        C379   1.353   1_565  A
N374        C378   1.349   1_565  A
N374        H406   1.039       .  S
N375        C382   1.350       .  A
N375        C383   1.351       .  A
N376        C381   1.353       .  A
N376        C380   1.352       .  A
N376        H407   1.037       .  S
N377        C384   1.349       .  A
N377        C385   1.348       .  A
C378        C386   1.387       .  A
C378        C394   1.412       .  A
C379        C395   1.413   1_545  A
C379        C387   1.387       .  A
C380        C388   1.388       .  A
C380        C397   1.415       .  A
C381        C396   1.415       .  A
C381        C389   1.387       .  A
C382        C394   1.413   1_565  A
C382        C390   1.387       .  A
C383        C397   1.411       .  A
C383        C391   1.385       .  A
C384        C392   1.386       .  A
C384        C395   1.410       .  A
C385        C393   1.385       .  A
C385        C396   1.408       .  A
C386        C387   1.377       .  A
C386        H398   1.083       .  S
C387        H399   1.082       .  S
C388        C389   1.375       .  A
C388        H400   1.082       .  S
C389        H401   1.082       .  S
C390        C391   1.371       .  A
C390        H402   1.082       .  S
C391        H403   1.082       .  S
C392        C393   1.371       .  A
C392        H404   1.082       .  S
C393        H405   1.082       .  S
C394        C601   1.485       .  S
C395        C690   1.488       .  S
C396        C701   1.483       .  S
C397        C630   1.486       .  S
In408       O419   2.251       .  S
In408       O413   2.249   1_565  S
In408       O415   2.249   1_565  S
In408       O420   2.264       .  S
C409        O417   1.262       .  A
C409        C581   1.479       .  S
O410        C418   1.262   1_545  A
O411        C418   1.260       .  A
C412        O419   1.262   1_545  A
C412        O413   1.259       .  A
C412        C610   1.485       .  S
C414        O420   1.260   1_554  A
C414        C561   1.498       .  S
C418        C621   1.487       .  S
In421       O432   2.240   1_554  S
In421       O426   2.259   1_554  S
In421       O428   2.258   1_554  S
In421       O433   2.260   1_454  S
C422        O430   1.258       .  A
C422        C661   1.480       .  S
O423        C431   1.263       .  A
O424        C431   1.265   1_655  A
C425        O432   1.258       .  A
C425        O426   1.261       .  A
C425        C530   1.484       .  S
C427        O433   1.257   1_554  A
C427        C590   1.477       .  S
C431        C550   1.482       .  S
N434        C439   1.353       .  A
N434        C438   1.355       .  A
N434        H466   1.036       .  S
N435        C442   1.352       .  A
N435        C443   1.352       .  A
N436        C441   1.354       .  A
N436        C440   1.355       .  A
N436        H467   1.035   1_655  S
N437        C444   1.353       .  A
N437        C445   1.353       .  A
C438        C446   1.387       .  A
C438        C454   1.418       .  A
C439        C455   1.417       .  A
C439        C447   1.387       .  A
C440        C448   1.387       .  A
C440        C457   1.420   1_655  A
C441        C456   1.421       .  A
C441        C449   1.388       .  A
C442        C454   1.413       .  A
C442        C450   1.385       .  A
C443        C457   1.418       .  A
C443        C451   1.387       .  A
C444        C452   1.386       .  A
C444        C455   1.416       .  A
C445        C453   1.387       .  A
C445        C456   1.418   1_455  A
C446        C447   1.377       .  A
C446        H458   1.082   1_455  S
C447        H459   1.082   1_455  S
C448        C449   1.378       .  A
C448        H460   1.082       .  S
C449        H461   1.082       .  S
C450        C451   1.372       .  A
C450        H462   1.082       .  S
C451        H463   1.082       .  S
C452        C453   1.374       .  A
C452        H464   1.082       .  S
C453        H465   1.082       .  S
C454        C541   1.493       .  S
C455        C510   1.493       .  S
C456        C481   1.496       .  S
C457        C521   1.497       .  S
In468       O479   2.236       .  S
In468       O473   2.271   1_455  S
In468       O475   2.251   1_455  S
In468       O480   2.241       .  S
C469        O477   1.261       .  A
C469        C570   1.483       .  S
O470        C478   1.259   1_655  A
O471        C478   1.259       .  A
C472        O479   1.256   1_655  A
C472        O473   1.259       .  A
C472        C490   1.481       .  S
C474        O480   1.260       .  A
C474        C650   1.480       .  S
C478        C501   1.476       .  S
C481        C482   1.411   1_655  A
C481        C486   1.414       .  A
C482        C483   1.406       .  A
C482       Br494   1.930       .  S
C483        C484   1.408   1_455  A
C483       Br498   1.930       .  S
C484        C487   1.486       .  S
C484        C485   1.408       .  A
C485        C486   1.411       .  A
C485       Br493   1.930       .  S
C486       Br497   1.927       .  S
C487        C488   1.409       .  A
C487        C492   1.408       .  A
C488        C489   1.410       .  A
C488       Br499   1.930       .  S
C489        C490   1.413       .  A
C489       Br495   1.930       .  S
C490        C491   1.413   1_655  A
C491        C492   1.407   1_455  A
C491       Br500   1.932       .  S
C492       Br496   1.930   1_655  S
C501        C502   1.410       .  A
C501        C506   1.411       .  A
C502        C503   1.406       .  A
C502       Br514   1.932       .  S
C503        C504   1.410       .  A
C503       Br518   1.929       .  S
C504        C507   1.487       .  S
C504        C505   1.411       .  A
C505        C506   1.409       .  A
C505       Br513   1.930       .  S
C506       Br517   1.932       .  S
C507        C508   1.410       .  A
C507        C512   1.410   1_455  A
C508        C509   1.410       .  A
C508       Br519   1.929       .  S
C509        C510   1.411       .  A
C509       Br515   1.928       .  S
C510        C511   1.409   1_455  A
C511        C512   1.407       .  A
C511       Br520   1.928       .  S
C512       Br516   1.929       .  S
C521        C522   1.413       .  A
C521        C526   1.413   1_455  A
C522        C523   1.408       .  A
C522       Br534   1.928       .  S
C523        C524   1.408       .  A
C523       Br538   1.931       .  S
C524        C527   1.484       .  S
C524        C525   1.408   1_455  A
C525        C526   1.407       .  A
C525       Br533   1.929       .  S
C526       Br537   1.929       .  S
C527        C528   1.409       .  A
C527        C532   1.406   1_455  A
C528        C529   1.410       .  A
C528       Br539   1.930       .  S
C529        C530   1.416       .  A
C529       Br535   1.932       .  S
C530        C531   1.416   1_455  A
C531        C532   1.405       .  A
C531       Br540   1.932       .  S
C532       Br536   1.933       .  S
C541        C542   1.410   1_455  A
C541        C546   1.411       .  A
C542        C543   1.407       .  A
C542       Br554   1.928       .  S
C543        C544   1.409   1_655  A
C543       Br558   1.930       .  S
C544        C547   1.486       .  S
C544        C545   1.410       .  A
C545        C546   1.409       .  A
C545       Br553   1.929       .  S
C546       Br557   1.928       .  S
C547        C548   1.409       .  A
C547        C552   1.408       .  A
C548        C549   1.410       .  A
C548       Br559   1.930       .  S
C549        C550   1.411       .  A
C549       Br555   1.929       .  S
C550        C551   1.413       .  A
C551        C552   1.408       .  A
C551       Br560   1.929       .  S
C552       Br556   1.932       .  S
C561        C566   1.419   1_554  A
C562        C563   1.411       .  A
C562       Br574   1.932       .  S
C563       Br578   1.934       .  S
C564        C565   1.408   1_554  A
C565        C566   1.410       .  A
C565       Br573   1.934       .  S
C566       Br577   1.932       .  S
C567        C568   1.410       .  A
C568        C569   1.409       .  A
C568       Br579   1.932       .  S
C569        C570   1.414       .  A
C569       Br575   1.930       .  S
C570        C571   1.413       .  A
C572       Br576   1.931       .  S
C581        C586   1.411       .  A
C582        C583   1.409       .  A
C582       Br594   1.930       .  S
C583       Br598   1.930       .  S
C584        C585   1.409       .  A
C585        C586   1.408       .  A
C585       Br593   1.931       .  S
C586       Br597   1.931       .  S
C587        C588   1.409       .  A
C588        C589   1.409       .  A
C588       Br599   1.931       .  S
C589        C590   1.412   1_556  A
C589       Br595   1.931       .  S
C591        C592   1.408       .  A
C591       Br600   1.929       .  S
C592       Br596   1.929       .  S
C601        C602   1.410       .  A
C601        C606   1.411   1_545  A
C602        C603   1.405       .  A
C602       Br614   1.932       .  S
C603        C604   1.409       .  A
C603       Br618   1.928       .  S
C604        C607   1.481       .  S
C604        C605   1.408   1_545  A
C605        C606   1.404       .  A
C605       Br613   1.930       .  S
C606       Br617   1.932       .  S
C607        C608   1.407   1_545  A
C607        C612   1.406       .  A
C608        C609   1.407       .  A
C608       Br619   1.931       .  S
C609        C610   1.415   1_565  A
C609       Br615   1.931       .  S
C610        C611   1.418       .  A
C611        C612   1.408       .  A
C611       Br620   1.931       .  S
C612       Br616   1.933       .  S
C621        C622   1.414   1_565  A
C621        C626   1.415       .  A
C622        C623   1.409       .  A
C622       Br634   1.931       .  S
C623        C624   1.409   1_545  A
C623       Br638   1.932       .  S
C624        C627   1.489       .  S
C624        C625   1.410       .  A
C625        C626   1.410       .  A
C625       Br633   1.932       .  S
C626       Br637   1.931       .  S
C627        C628   1.413       .  A
C627        C632   1.412   1_565  A
C628        C629   1.408       .  A
C628       Br639   1.928       .  S
C629        C630   1.408       .  A
C629       Br635   1.930       .  S
C630        C631   1.407   1_565  A
C631        C632   1.405       .  A
C631       Br640   1.931       .  S
C632       Br636   1.929       .  S
C641        C642   1.416       .  A
C642        C643   1.409       .  A
C642       Br654   1.933       .  S
C643        C644   1.408       .  A
C643       Br658   1.931       .  S
C645        C646   1.409       .  A
C645       Br653   1.930       .  S
C646       Br657   1.931       .  S
C647        C652   1.410   1_554  A
C648       Br659   1.929       .  S
C649        C650   1.413   1_554  A
C650        C651   1.412       .  A
C651        C652   1.407       .  A
C651       Br660   1.932       .  S
C652       Br656   1.931       .  S
C661        C666   1.412       .  A
C662        C663   1.407       .  A
C662       Br674   1.931       .  S
C663       Br678   1.931       .  S
C664        C665   1.408       .  A
C665        C666   1.409       .  A
C665       Br673   1.929       .  S
C666       Br677   1.928       .  S
C667        C668   1.408       .  A
C667        C672   1.408   1_554  A
C668        C669   1.406       .  A
C669        C670   1.413       .  A
C669       Br675   1.933       .  S
C670        C671   1.413   1_554  A
C671        C672   1.409       .  A
C671       Br680   1.931       .  S
C672       Br676   1.930       .  S
C681        C682   1.414       .  A
C681        C686   1.414   1_545  A
C682        C683   1.403       .  A
C682       Br694   1.933       .  S
C683        C684   1.406   1_545  A
C683       Br698   1.932       .  S
C684        C687   1.477       .  S
C684        C685   1.407       .  A
C685        C686   1.407       .  A
C685       Br693   1.931       .  S
C686       Br697   1.928       .  S
C687        C688   1.406   1_565  A
C687        C692   1.407       .  A
C688        C689   1.405       .  A
C688       Br699   1.930       .  S
C689        C690   1.413   1_545  A
C689       Br695   1.929       .  S
C690        C691   1.411       .  A
C691        C692   1.405       .  A
C691       Br700   1.929       .  S
C692       Br696   1.931       .  S
C701        C702   1.407       .  A
C701        C706   1.409   1_565  A
C702        C703   1.406       .  A
C702       Br714   1.928       .  S
C703        C704   1.410       .  A
C703       Br718   1.928       .  S
C704        C707   1.481       .  S
C704        C705   1.409   1_565  A
C705        C706   1.404       .  A
C705       Br713   1.928       .  S
C706       Br717   1.931       .  S
C707        C708   1.407       .  A
C707        C712   1.408       .  A
C708        C709   1.405       .  A
C708       Br719   1.932       .  S
C709        C710   1.412       .  A
C709       Br715   1.928       .  S
C710        C711   1.412       .  A
C711        C712   1.409       .  A
C711       Br720   1.930       .  S
C712       Br716   1.929       .  S
