geometry optimzed in LAMMPS
_audit_creation_date              2020-11-30 
_audit_creation_method            'lammps2cif' 
_symmetry_space_group_name_H-M    'P1' 
_symmetry_Int_Tables_number       1 
_symmetry_cell_setting            triclinic 
loop_ 
_symmetry_equiv_pos_as_xyz 
  x,y,z 
_cell_length_a                    32.3095714482568 
_cell_length_b                    32.20968363033888 
_cell_length_c                    32.174208267084424 
_cell_angle_alpha                 90.61987034615736 
_cell_angle_beta                  91.02369010963017 
_cell_angle_gamma                 89.89056453633378 
loop_ 
_atom_site_label 
_atom_site_type_symbol 
_atom_site_fract_x 
_atom_site_fract_y 
_atom_site_fract_z 
_atom_site_charge 
C1          C  0.64334621  0.13707343  0.80660967     0.04170
C2          C  0.63358282  0.17727334  0.81855952    -0.11980
C3          C  0.64696293  0.19322770  0.85701526     0.01670
C4          C  0.65157530  0.16304328  0.88883695    -0.10510
C5          C  0.65338406  0.12016226  0.87876096     0.04160
C6          C  0.65287291  0.10768003  0.83685310    -0.09930
H7          H  0.61855260  0.19588431  0.79557631     0.09760
H8          H  0.65257150  0.17177748  0.92123694     0.07290
H9          H  0.65872964  0.07567416  0.82803380     0.07130
C10         C  0.89657681  0.15243992  0.55890570     0.04170
C11         C  0.91195853  0.19339679  0.55734372    -0.11980
C12         C  0.95315929  0.20164822  0.54645237     0.01670
C13         C  0.98073775  0.16846045  0.54106391    -0.10510
C14         C  0.96789060  0.12767186  0.54740120     0.04160
C15         C  0.92577737  0.11964542  0.55454637    -0.09930
H16         H  0.89208812  0.21939689  0.56468755     0.09760
H17         H  0.01265541  0.17443841  0.53323757     0.07290
H18         H  0.91614010  0.08766158  0.55590289     0.07130
C19         C  0.89787526  0.46299978  0.84501414     0.04170
C20         C  0.91007817  0.45484110  0.80453500    -0.11980
C21         C  0.95146023  0.44629438  0.79517276     0.01670
C22         C  0.98131492  0.44717005  0.82782232    -0.10510
C23         C  0.96980282  0.45827945  0.86855863     0.04160
C24         C  0.92801419  0.46599702  0.87693588    -0.09930
H25         H  0.88642334  0.45297457  0.78026934     0.09760
H26         H  0.01320857  0.43915697  0.82181475     0.07290
H27         H  0.91863616  0.47103346  0.90873453     0.07130
C28         C  0.72321250  0.42645962  0.87075884     0.04170
C29         C  0.71099535  0.38476574  0.86792155    -0.11980
C30         C  0.67059565  0.37264621  0.87667593     0.01670
C31         C  0.63989301  0.40278537  0.88226410    -0.10510
C32         C  0.65037866  0.44490958  0.88159661     0.04160
C33         C  0.69216277  0.45656898  0.87834048    -0.09930
H34         H  0.73290650  0.36107232  0.85870945     0.09760
H35         H  0.60789113  0.39351596  0.88535405     0.07290
H36         H  0.70002336  0.48911658  0.88131000     0.07130
C37         C  0.97125086  0.42605270  0.61665522     0.04170
C38         C  0.97854093  0.38575231  0.60187926    -0.11980
C39         C  0.98264169  0.37707913  0.55945580     0.01670
C40         C  0.98174618  0.41036741  0.53132384    -0.10510
C41         C  0.97464658  0.45128845  0.54548994     0.04160
C42         C  0.96885401  0.45888624  0.58816648    -0.09930
H43         H  0.97941764  0.36041808  0.62377860     0.09760
H44         H  0.98495712  0.40445631  0.49839928     0.07290
H45         H  0.96250846  0.49014482  0.59911877     0.07130
C46         C  0.66375410  0.12897608  0.62875368     0.04170
C47         C  0.70490434  0.12024607  0.61840310    -0.11980
C48         C  0.71780679  0.11907417  0.57733451     0.01670
C49         C  0.68707184  0.11981066  0.54553635    -0.10510
C50         C  0.64517538  0.12588227  0.55483741     0.04160
C51         C  0.63395813  0.13277578  0.59636239    -0.09930
H52         H  0.72794198  0.11756358  0.64298973     0.09760
H53         H  0.69553277  0.11787996  0.51340307     0.07290
H54         H  0.60230765  0.14112683  0.60297664     0.07130
C55         C  0.21562496  0.45322903  0.85356894     0.04170
C56         C  0.20208861  0.46092927  0.81259826    -0.11980
C57         C  0.16022704  0.46578403  0.80173365     0.01670
C58         C  0.13127031  0.46760833  0.83394916    -0.10510
C59         C  0.14336239  0.45969893  0.87532562     0.04160
C60         C  0.18527559  0.45082308  0.88468665    -0.09930
H61         H  0.22457766  0.46162861  0.78830368     0.09760
H62         H  0.09890950  0.47296593  0.82673151     0.07290
H63         H  0.19385326  0.44238924  0.91608887     0.07130
C64         C  0.21956922  0.13852641  0.56151870     0.04170
C65         C  0.20930936  0.18095434  0.56240765    -0.11980
C66         C  0.16835931  0.19487456  0.56195279     0.01670
C67         C  0.13634292  0.16545585  0.55656609    -0.10510
C68         C  0.14567269  0.12265959  0.55298863     0.04160
C69         C  0.18730326  0.10931051  0.55669946    -0.09930
H70         H  0.23382343  0.20387147  0.56470822     0.09760
H71         H  0.10437417  0.17566160  0.55578411     0.07290
H72         H  0.19411761  0.07642425  0.55707944     0.07130
C73         C  0.47672377  0.15124084  0.80409210     0.04170
C74         C  0.47120100  0.19191607  0.81810878    -0.11980
C75         C  0.46702874  0.20110721  0.86033280     0.01670
C76         C  0.46716521  0.16891533  0.88946304    -0.10510
C77         C  0.47224764  0.12753784  0.87598673     0.04160
C78         C  0.47825726  0.11913450  0.83362540    -0.09930
H79         H  0.46805988  0.21677780  0.79581401     0.09760
H80         H  0.46245206  0.17592071  0.92205502     0.07290
H81         H  0.48240929  0.08738587  0.82373904     0.07130
C82         C  0.44206700  0.37941629  0.87267825     0.04170
C83         C  0.40257142  0.39578856  0.87950482    -0.11980
C84         C  0.39418440  0.43811083  0.87524985     0.01670
C85         C  0.42727848  0.46610128  0.87275083    -0.10510
C86         C  0.46811426  0.45088505  0.87035362     0.04160
C87         C  0.47475005  0.40783392  0.86659600    -0.09930
H88         H  0.37703169  0.37526331  0.88538091     0.09760
H89         H  0.42127149  0.49912092  0.87162024     0.07290
H90         H  0.50552243  0.39696240  0.85947639     0.07130
C91         C  0.45533614  0.13076158  0.62476099     0.04170
C92         C  0.41335443  0.13317164  0.61414520    -0.11980
C93         C  0.39871895  0.13319946  0.57295071     0.01670
C94         C  0.42783302  0.13143575  0.54079643    -0.10510
C95         C  0.47058232  0.12898408  0.55055112     0.04160
C96         C  0.48401433  0.12864477  0.59241236    -0.09930
H97         H  0.39128207  0.13488059  0.63894413     0.09760
H98         H  0.41750020  0.13200282  0.50860683     0.07290
H99         H  0.51676103  0.12721641  0.59933079     0.07130
C100        C  0.15502070  0.37590166  0.57673041     0.04170
C101        C  0.15778850  0.40558929  0.54486423    -0.11980
C102        C  0.14537065  0.44698343  0.55189486     0.01670
C103        C  0.13298489  0.45952459  0.59169704    -0.10510
C104        C  0.13510574  0.43183148  0.62510315     0.04160
C105        C  0.14418643  0.39002456  0.61678788    -0.09930
H106        H  0.16888705  0.39664421  0.51451993     0.09760
H107        H  0.12476658  0.49172073  0.59732354     0.07290
H108        H  0.14354583  0.36838321  0.64223734     0.07130
C109        C  0.47648645  0.86993895  0.86140276     0.04170
C110        C  0.48501530  0.87938224  0.82020482    -0.11980
C111        C  0.47245964  0.91739492  0.80309716     0.01670
C112        C  0.46351026  0.94982212  0.83236196    -0.10510
C113        C  0.46783924  0.94338703  0.87569694     0.04160
C114        C  0.47068021  0.90241677  0.89002985    -0.09930
H115        H  0.49754849  0.85492155  0.80099385     0.09760
H116        H  0.45218515  0.97969988  0.82294311     0.07290
H117        H  0.46759378  0.89586985  0.92277163     0.07130
C118        C  0.16945571  0.87638661  0.54051898     0.04170
C119        C  0.20800437  0.89284934  0.55364050    -0.11980
C120        C  0.21668687  0.93531509  0.55189275     0.01670
C121        C  0.18428451  0.96364852  0.54751683    -0.10510
C122        C  0.14392766  0.94926442  0.54075853     0.04160
C123        C  0.13734045  0.90634227  0.53319578    -0.09930
H124        H  0.23269916  0.87299059  0.56460784     0.09760
H125        H  0.19043660  0.99668068  0.54935075     0.07290
H126        H  0.10728793  0.89807163  0.52141837     0.07130
C127        C  0.16040124  0.62590848  0.80329705     0.04170
C128        C  0.13324037  0.63354105  0.83597811    -0.11980
C129        C  0.14770006  0.63018756  0.87732765     0.00950
C130        C  0.19091356  0.62687884  0.88515349    -0.10510
C131        C  0.21902984  0.61747035  0.85250131     0.04160
C132        C  0.20032048  0.61154730  0.81303918    -0.09930
H133        H  0.10136263  0.64211855  0.82951650     0.09760
H134        H  0.20131978  0.63331128  0.91644506     0.07290
H135        H  0.21710236  0.59838392  0.78800589     0.07130
C136        C  0.39962058  0.63473958  0.87555258     0.04170
C137        C  0.40881750  0.67719689  0.87488274    -0.11980
C138        C  0.44940566  0.69168835  0.86921217     0.01670
C139        C  0.48134268  0.66198414  0.86583438    -0.10510
C140        C  0.47301966  0.61954075  0.87076873     0.04160
C141        C  0.43203886  0.60592090  0.87487866    -0.09930
H142        H  0.38345946  0.69896413  0.87683556     0.09760
H143        H  0.51273703  0.67157103  0.85982239     0.07290
H144        H  0.42528350  0.57306497  0.87601978     0.07130
C145        C  0.15105900  0.65081486  0.62413906     0.04170
C146        C  0.15246814  0.69122564  0.60814597    -0.11980
C147        C  0.15748639  0.69794258  0.56567628     0.01670
C148        C  0.15811388  0.66424378  0.53806262    -0.10510
C149        C  0.15450760  0.62368637  0.55279563     0.04160
C150        C  0.15155590  0.61679042  0.59595008    -0.09930
H151        H  0.15073496  0.71778348  0.62903986     0.09760
H152        H  0.16071108  0.66968667  0.50500333     0.07290
H153        H  0.14997052  0.58534555  0.60742688     0.07130
C154        C  0.45037405  0.93127207  0.62264950     0.04170
C155        C  0.40825404  0.93310429  0.61263137    -0.11980
C156        C  0.39421444  0.94853367  0.57432805     0.01670
C157        C  0.42432311  0.95757603  0.54408483    -0.10510
C158        C  0.46664230  0.94952629  0.55219781     0.04160
C159        C  0.47960768  0.93807513  0.59212776    -0.09930
H160        H  0.38658436  0.92287358  0.63557102     0.09760
H161        H  0.41501989  0.96914330  0.51387247     0.07290
H162        H  0.51229010  0.93441822  0.59947793     0.07130
C163        C  0.89054292  0.93229777  0.54968309     0.04170
C164        C  0.90080016  0.89202251  0.53661274    -0.11980
C165        C  0.94165384  0.87947430  0.53281296     0.01670
C166        C  0.97265941  0.91006800  0.53241390    -0.10510
C167        C  0.96300804  0.95176837  0.54070332     0.04160
C168        C  0.92237071  0.96236519  0.55220970    -0.09930
H169        H  0.87679376  0.86879921  0.53357588     0.09760
H170        H  0.00453205  0.90151170  0.52794895     0.07290
H171        H  0.91624033  0.99344576  0.56352618     0.07130
C172        C  0.64635966  0.87400533  0.85297906     0.04170
C173        C  0.66129950  0.90259419  0.88412007    -0.11980
C174        C  0.65973603  0.94588626  0.87745664     0.01670
C175        C  0.65336357  0.96023531  0.83704559    -0.10510
C176        C  0.64171850  0.93215335  0.80579229     0.04160
C177        C  0.63097243  0.89170633  0.81614438    -0.09930
H178        H  0.67475515  0.89262589  0.91312809     0.09760
H179        H  0.65795965  0.99268808  0.82989059     0.07290
H180        H  0.61486369  0.87323761  0.79283639     0.07130
C181        C  0.95085421  0.61740281  0.80432082     0.04170
C182        C  0.90956045  0.61722884  0.81702373    -0.11980
C183        C  0.89958452  0.61825228  0.85934709     0.01670
C184        C  0.93145864  0.61955727  0.88945652    -0.10510
C185        C  0.97295323  0.61997442  0.87743340     0.04160
C186        C  0.98256818  0.61844230  0.83502569    -0.09930
H187        H  0.88498379  0.61958902  0.79380625     0.09760
H188        H  0.92393151  0.62247074  0.92203559     0.07290
H189        H  0.01456635  0.62054238  0.82611122     0.07130
C190        C  0.96732145  0.65261397  0.62569794     0.04170
C191        C  0.95938570  0.69329270  0.61168853    -0.11980
C192        C  0.96257812  0.70384760  0.56948974     0.01670
C193        C  0.96860685  0.67215644  0.53994726    -0.10510
C194        C  0.97265267  0.63083467  0.55209337     0.04160
C195        C  0.97471123  0.62153638  0.59484503    -0.09930
H196        H  0.95027012  0.71730447  0.63340436     0.09760
H197        H  0.96945526  0.67936893  0.50721682     0.07290
H198        H  0.98105300  0.58981515  0.60362431     0.07130
C199        C  0.72232220  0.64720271  0.87610502     0.04170
C200        C  0.70488477  0.68517317  0.86335064    -0.11980
C201        C  0.66290030  0.69386439  0.86659678     0.01670
C202        C  0.63529628  0.66223956  0.87549289    -0.10510
C203        C  0.65003896  0.62163884  0.87979194     0.04160
C204        C  0.69330129  0.61407700  0.88023828    -0.09930
H205        H  0.72255911  0.70901848  0.84928965     0.09760
H206        H  0.60240204  0.66876514  0.87649797     0.07290
H207        H  0.70319579  0.58215248  0.88125470     0.07130
C208        C  0.71472011  0.94275424  0.57298752     0.04170
C209        C  0.70510698  0.94520265  0.61489524    -0.11980
C210        C  0.66461993  0.93944308  0.62818586     0.01670
C211        C  0.63270596  0.93619685  0.59764736    -0.10510
C212        C  0.64185117  0.94035799  0.55524336     0.04160
C213        C  0.68313098  0.94201157  0.54285866    -0.09930
H214        H  0.73007529  0.94988574  0.63739909     0.09760
H215        H  0.60098595  0.93102749  0.60646118     0.07290
H216        H  0.69061765  0.94247474  0.51014869     0.07130
C217        C  0.17664221  0.65448775  0.12620329     0.04170
C218        C  0.21363314  0.66721600  0.10805548    -0.11980
C219        C  0.22275263  0.65571841  0.06718712     0.01670
C220        C  0.19047962  0.64477219  0.03984653    -0.10510
C221        C  0.15035663  0.64153417  0.05464046     0.04160
C222        C  0.14427341  0.64190230  0.09791383    -0.09930
H223        H  0.23741912  0.68318481  0.12537531     0.09760
H224        H  0.19636341  0.63846600  0.00736960     0.07290
H225        H  0.11449165  0.63190312  0.10858626     0.07130
C226        C  0.15988473  0.87370313  0.37166185     0.04170
C227        C  0.20147095  0.88444283  0.37760079    -0.11980
C228        C  0.21597263  0.92460757  0.36929270     0.01670
C229        C  0.18555680  0.95561158  0.36170531    -0.10510
C230        C  0.14303570  0.94674804  0.36532933     0.04160
C231        C  0.13016675  0.90522584  0.36784393    -0.09930
H232        H  0.22251892  0.86005370  0.38693529     0.09760
H233        H  0.19425604  0.98680135  0.35359194     0.07290
H234        H  0.09754192  0.89754255  0.36605288     0.07130
C235        C  0.47746598  0.87938132  0.07309018     0.04170
C236        C  0.46861220  0.89107433  0.11391472    -0.11980
C237        C  0.45932460  0.93226274  0.12488492     0.01670
C238        C  0.45774058  0.96243595  0.09337486    -0.10510
C239        C  0.46814902  0.95166095  0.05226539     0.04160
C240        C  0.47985051  0.91063694  0.04291378    -0.09930
H241        H  0.46744665  0.86746490  0.13751726     0.09760
H242        H  0.44901500  0.99407019  0.10068513     0.07290
H243        H  0.48866756  0.90270109  0.01147093     0.07130
C244        C  0.39922179  0.65438853  0.04158274     0.04170
C245        C  0.41487426  0.69475477  0.04391153    -0.11980
C246        C  0.45753701  0.70243568  0.04512616     0.01670
C247        C  0.48499646  0.66837376  0.04558121    -0.10510
C248        C  0.46996441  0.62744630  0.04379057     0.04160
C249        C  0.42705507  0.62057212  0.04158867    -0.09930
H250        H  0.39344727  0.72063779  0.04582700     0.09760
H251        H  0.51791966  0.67323266  0.04823949     0.07290
H252        H  0.41541192  0.58904554  0.04092740     0.07130
C253        C  0.44198902  0.94957215  0.30424761     0.04170
C254        C  0.40142949  0.95433097  0.31823896    -0.11980
C255        C  0.39282172  0.95591317  0.36064762     0.01670
C256        C  0.42544741  0.95688988  0.38980326    -0.10510
C257        C  0.46654787  0.95443038  0.37643895     0.04160
C258        C  0.47477146  0.94962817  0.33378278    -0.09930
H259        H  0.37583873  0.95417508  0.29595935     0.09760
H260        H  0.41886785  0.95740020  0.42271728     0.07290
H261        H  0.50636264  0.94542528  0.32377989     0.07130
C262        C  0.15039855  0.63699943  0.30172156     0.04170
C263        C  0.14366384  0.67880679  0.31125884    -0.11980
C264        C  0.14855764  0.69417505  0.35192904     0.01670
C265        C  0.15316661  0.66515442  0.38441048    -0.10510
C266        C  0.15332065  0.62212881  0.37551936     0.04160
C267        C  0.15409246  0.60824251  0.33390214    -0.09930
H268        H  0.13839373  0.70018330  0.28590042     0.09760
H269        H  0.15692658  0.67558569  0.41633023     0.07290
H270        H  0.15785481  0.57552872  0.32666107     0.07130
C271        C  0.65455463  0.87279561  0.07301386     0.04170
C272        C  0.64175488  0.88462013  0.11240094    -0.11980
C273        C  0.64817114  0.92504587  0.12755944     0.01670
C274        C  0.65888227  0.95593790  0.09865587    -0.10510
C275        C  0.66372732  0.94562803  0.05635900     0.04160
C276        C  0.66485141  0.90353047  0.04433788    -0.09930
H277        H  0.63011993  0.86083486  0.13261366     0.09760
H278        H  0.66359777  0.98778705  0.10830569     0.07290
H279        H  0.67333659  0.89517247  0.01306678     0.07130
C280        C  0.94303022  0.88486887  0.36235750     0.04170
C281        C  0.90204213  0.89879392  0.36111081    -0.11980
C282        C  0.89233042  0.94091241  0.35750942     0.01670
C283        C  0.92470428  0.97011476  0.35734948    -0.10510
C284        C  0.96627393  0.95657824  0.36040608     0.04160
C285        C  0.97528291  0.91390277  0.36266846    -0.09930
H286        H  0.87716530  0.87621610  0.36152302     0.09760
H287        H  0.91768270  0.00291041  0.35505962     0.07290
H288        H  0.00716134  0.90338810  0.36413440     0.07130
C289        C  0.89291269  0.62482421  0.05739639     0.04170
C290        C  0.89930901  0.63120598  0.10035897    -0.11980
C291        C  0.93805898  0.64160609  0.11817193     0.01670
C292        C  0.97122467  0.64623598  0.09004421    -0.10510
C293        C  0.96676841  0.63466358  0.04770752     0.04160
C294        C  0.92735222  0.62449848  0.03151796    -0.09930
H295        H  0.87316085  0.62676015  0.11983893     0.09760
H296        H  0.00088085  0.65810316  0.10049072     0.07290
H297        H  0.92343554  0.61692478  0.99881307     0.07130
C298        C  0.71695656  0.63734308  0.04007000     0.04170
C299        C  0.70825376  0.67894398  0.04988117    -0.11980
C300        C  0.66875731  0.69251514  0.06184232     0.01670
C301        C  0.63719273  0.66225680  0.06468126    -0.10510
C302        C  0.64436174  0.62069855  0.05207673     0.04160
C303        C  0.68414422  0.60869817  0.03930187    -0.09930
H304        H  0.73306042  0.70121323  0.04817555     0.09760
H305        H  0.60687584  0.67089977  0.07565423     0.07290
H306        H  0.68983838  0.57675000  0.03014264     0.07130
C307        C  0.95668160  0.65187473  0.30067484     0.04170
C308        C  0.95930686  0.69309733  0.31330973    -0.11980
C309        C  0.95235062  0.70543260  0.35447580     0.01670
C310        C  0.94987045  0.67436811  0.38504780    -0.10510
C311        C  0.95355792  0.63198403  0.37375740     0.04160
C312        C  0.95489957  0.62080921  0.33110700    -0.09930
H313        H  0.96356936  0.71634604  0.28964497     0.09760
H314        H  0.94497071  0.68265450  0.41724887     0.07290
H315        H  0.95452602  0.58841715  0.32180791     0.07130
C316        C  0.71232265  0.94974780  0.35092762     0.04170
C317        C  0.69465980  0.95539034  0.31134822    -0.11980
C318        C  0.65205901  0.95270016  0.30403598     0.01670
C319        C  0.62540477  0.94971613  0.33732608    -0.10510
C320        C  0.64158237  0.94744491  0.37791660     0.04160
C321        C  0.68501487  0.94570676  0.38475760    -0.09930
H322        H  0.71443140  0.95819711  0.28484155     0.09760
H323        H  0.59228354  0.94784118  0.33157735     0.07290
H324        H  0.69700155  0.94079951  0.41592735     0.07130
C325        C  0.89739739  0.44844178  0.07682592     0.04170
C326        C  0.92572580  0.46264642  0.04656054    -0.11980
C327        C  0.96888528  0.45735023  0.05248600     0.01670
C328        C  0.98411321  0.44634967  0.09204226    -0.10510
C329        C  0.95646871  0.43487345  0.12288643     0.04160
C330        C  0.91453231  0.43072510  0.11277942    -0.09930
H331        H  0.91497271  0.47699434  0.01817783     0.09760
H332        H  0.01712471  0.44605417  0.09858704     0.07290
H333        H  0.89513590  0.41511196  0.13462682     0.07130
C334        C  0.89793254  0.14289549  0.37479820     0.04170
C335        C  0.90657268  0.18500579  0.37830930    -0.11980
C336        C  0.94700097  0.20003775  0.37576287     0.01670
C337        C  0.97986756  0.17101949  0.37444639    -0.10510
C338        C  0.97151064  0.12799478  0.37550240     0.04160
C339        C  0.93030217  0.11406368  0.37461845    -0.09930
H340        H  0.88083376  0.20641797  0.38114731     0.09760
H341        H  0.01154395  0.18162991  0.37247805     0.07290
H342        H  0.92348485  0.08115479  0.37289728     0.07130
C343        C  0.65123796  0.14607663  0.12645773     0.04170
C344        C  0.66255266  0.18644572  0.11557247    -0.11980
C345        C  0.66889473  0.19789605  0.07416305     0.01670
C346        C  0.66836604  0.16637535  0.04335157    -0.10510
C347        C  0.65668766  0.12564662  0.05340943     0.04160
C348        C  0.64559381  0.11659489  0.09423900    -0.09930
H349        H  0.66743163  0.20937913  0.13969768     0.09760
H350        H  0.67662461  0.17331358  0.01174988     0.07290
H351        H  0.63578255  0.08546483  0.10131327     0.07130
C352        C  0.67292522  0.37817585  0.05975531     0.04170
C353        C  0.63834283  0.40521101  0.05902776    -0.11980
C354        C  0.64427986  0.44868321  0.05740339     0.01670
C355        C  0.68476812  0.46479593  0.05811474    -0.10510
C356        C  0.71883458  0.43784220  0.05856727     0.04160
C357        C  0.71255556  0.39513809  0.05739553    -0.09930
H358        H  0.60730615  0.39267940  0.06012572     0.09760
H359        H  0.68969717  0.49804089  0.05815479     0.07290
H360        H  0.73929912  0.37472903  0.05661300     0.07130
C361        C  0.66595953  0.10837873  0.30345372     0.04170
C362        C  0.70750930  0.10971416  0.31565187    -0.11980
C363        C  0.72010233  0.12296718  0.35550479     0.01670
C364        C  0.68900119  0.12911700  0.38559874    -0.10510
C365        C  0.64709359  0.12015104  0.37583999     0.04160
C366        C  0.63569410  0.11075446  0.33437897    -0.09930
H367        H  0.73060567  0.10398391  0.29248852     0.09760
H368        H  0.69672803  0.14083691  0.41633855     0.07290
H369        H  0.60322310  0.10800212  0.32579230     0.07130
C370        C  0.96648387  0.42377025  0.30410483     0.04170
C371        C  0.97513306  0.38544034  0.32270647    -0.11980
C372        C  0.96609322  0.37785781  0.36425562     0.01670
C373        C  0.95865926  0.41128730  0.39105779    -0.10510
C374        C  0.95678380  0.45160902  0.37517872     0.04160
C375        C  0.95678658  0.45727009  0.33163664    -0.09930
H376        H  0.98559972  0.35959942  0.30428593     0.09760
H377        H  0.95431419  0.40605210  0.42387011     0.07290
H378        H  0.94860395  0.48758617  0.32032571     0.07130
C379        C  0.21473454  0.45263073  0.07061739     0.04170
C380        C  0.20423591  0.44065081  0.11077054    -0.11980
C381        C  0.16316045  0.44040696  0.12385715     0.01670
C382        C  0.13128621  0.44775138  0.09444753    -0.10510
C383        C  0.14101633  0.45812558  0.05337096     0.04160
C384        C  0.18259214  0.46233698  0.04223550    -0.09930
H385        H  0.22837607  0.43144240  0.13245864     0.09760
H386        H  0.09922669  0.44504792  0.10333950     0.07290
H387        H  0.18972069  0.47090689  0.01076970     0.07130
C388        C  0.44521669  0.19673413  0.07048265     0.04170
C389        C  0.44600010  0.18374898  0.11157313    -0.11980
C390        C  0.46135976  0.14476025  0.12252158     0.01670
C391        C  0.47112676  0.11602051  0.09093107    -0.10510
C392        C  0.46568817  0.12680247  0.04893745     0.04160
C393        C  0.45368360  0.16763505  0.03873878    -0.09930
H394        H  0.43759127  0.20561013  0.13584674     0.09760
H395        H  0.48164756  0.08512987  0.09885893     0.07290
H396        H  0.45146408  0.17683563  0.00648108     0.07130
C397        C  0.21950070  0.14813707  0.38211195     0.04170
C398        C  0.20618024  0.18943062  0.38510568    -0.11980
C399        C  0.16414947  0.19927038  0.39006786     0.01670
C400        C  0.13535169  0.16664995  0.39227344    -0.10510
C401        C  0.14777571  0.12548108  0.38541669     0.04160
C402        C  0.18980679  0.11629538  0.38065972    -0.09930
H403        H  0.22870612  0.21403044  0.38196475     0.09760
H404        H  0.10287067  0.17335973  0.39688526     0.07290
H405        H  0.19913756  0.08466755  0.37457107     0.07130
C406        C  0.45243272  0.13147781  0.29978960     0.04170
C407        C  0.48231480  0.12595091  0.33122772    -0.11980
C408        C  0.47022745  0.12292340  0.37264406     0.01670
C409        C  0.42766099  0.12217605  0.38189601    -0.10510
C410        C  0.39709333  0.13036026  0.35069154     0.04160
C411        C  0.41088534  0.13722442  0.31019837    -0.09930
H412        H  0.51478603  0.12395458  0.32348073     0.09760
H413        H  0.41881022  0.11618085  0.41353466     0.07290
H414        H  0.38928761  0.14626183  0.28586025     0.07130
C415        C  0.13474176  0.37344471  0.35969283     0.04170
C416        C  0.13987051  0.38137103  0.31744194    -0.11980
C417        C  0.14927802  0.42124544  0.30331912     0.01670
C418        C  0.15322866  0.45386218  0.33290524    -0.10510
C419        C  0.14408225  0.44695171  0.37485943     0.04160
C420        C  0.13421697  0.40694801  0.38781467    -0.09930
H421        H  0.13800605  0.35580151  0.29542774     0.09760
H422        H  0.16247693  0.48457148  0.32336866     0.07290
H423        H  0.12882514  0.40164458  0.42037045     0.07130
C424        C  0.43732317  0.37676901  0.05440207     0.04170
C425        C  0.46934343  0.40660480  0.05928991    -0.11980
C426        C  0.46237576  0.44843631  0.04832580     0.01670
C427        C  0.42209863  0.46118035  0.03708830    -0.10510
C428        C  0.38932755  0.43242114  0.03588064     0.04160
C429        C  0.39827002  0.39043279  0.04094984    -0.09930
H430        H  0.49952530  0.39766510  0.07122717     0.09760
H431        H  0.41580363  0.49382924  0.03214119     0.07290
H432        H  0.37339290  0.36818941  0.03746504     0.07130
O433        O  0.59282899  0.57930386  0.08484740    -0.70740
O434        O  0.51185103  0.49255915  0.08354921    -0.70960
O435        O  0.59553951  0.49541008  0.08771156    -0.70820
O436        O  0.50959606  0.57673599  0.08072167    -0.70820
O437        O  0.51588541  0.57777454  0.01360112    -0.70780
O438        O  0.59366601  0.48857116  0.02043383    -0.70800
O439        O  0.51001765  0.49412688  0.01605093    -0.70740
O440        O  0.59921734  0.57182908  0.01808238    -0.70930
V441        V  0.55242462  0.53585260  0.08297361     1.35240
V442        V  0.55456156  0.53305784  0.01829955     1.35170
C443        C  0.61056207  0.58955631  0.05170002     0.78500
C444        C  0.49638120  0.47936763  0.04945249     0.78560
C445        C  0.60907244  0.47801534  0.05519445     0.78430
C446        C  0.49932667  0.59223994  0.04604950     0.78390
O447        O  0.11414666  0.49612256  0.50623287    -0.70740
O448        O  0.11795969  0.57766318  0.42149555    -0.70960
O449        O  0.11346845  0.49428922  0.42241035    -0.70820
O450        O  0.11845877  0.57918702  0.50540865    -0.70820
O451        O  0.18537276  0.57232358  0.50925789    -0.70780
O452        O  0.18064695  0.49418539  0.41941711    -0.70800
O453        O  0.18520864  0.57722789  0.42532756    -0.70740
O454        O  0.18090251  0.48870050  0.50307121    -0.70930
V455        V  0.11727948  0.53675802  0.46385053     1.35240
V456        V  0.18178014  0.53319685  0.46434786     1.35170
C457        C  0.14685123  0.47812197  0.51863441     0.78500
C458        C  0.15222470  0.59147423  0.40918951     0.78560
C459        C  0.14616865  0.48041648  0.40625598     0.78430
C460        C  0.15268423  0.58959546  0.52201180     0.78390
O461        O  0.60122349  0.09172722  0.50485501    -0.70740
O462        O  0.51423690  0.08984552  0.42293724    -0.70960
O463        O  0.59795115  0.08900933  0.42073727    -0.70820
O464        O  0.51769863  0.09291217  0.50657502    -0.70820
O465        O  0.51460642  0.16003511  0.50094231    -0.70780
O466        O  0.60300773  0.15622721  0.42355398    -0.70800
O467        O  0.51919170  0.15684747  0.41752839    -0.70740
O468        O  0.59797959  0.15909699  0.50745451    -0.70930
V469        V  0.55786533  0.09212340  0.46373877     1.35240
V470        V  0.55869506  0.15680377  0.46232983     1.35170
C471        C  0.61347422  0.12564659  0.52102517     0.78500
C472        C  0.50231007  0.12309617  0.40593635     0.78560
C473        C  0.61485976  0.12194466  0.40818518     0.78430
C474        C  0.50181291  0.12717234  0.51759891     0.78390
O475        O  0.99230241  0.58663467  0.41822366    -0.70740
O476        O  0.00259962  0.49967642  0.49767272    -0.70960
O477        O  0.99295073  0.50304252  0.41468870    -0.70820
O478        O  0.00220900  0.58368137  0.50229565    -0.70820
O479        O  0.93521436  0.58458215  0.50697444    -0.70780
O480        O  0.92638253  0.50024458  0.42276721    -0.70800
O481        O  0.93603250  0.50098346  0.50616413    -0.70740
O482        O  0.92535773  0.58450496  0.42297730    -0.70930
V483        V  0.99620104  0.54337089  0.45835749     1.35240
V484        V  0.93202931  0.54270859  0.46456721     1.35170
C485        C  0.95708316  0.59973137  0.40634303     0.78500
C486        C  0.97100972  0.48553569  0.51537876     0.78560
C487        C  0.95838814  0.48709196  0.40467365     0.78430
C488        C  0.97017013  0.59784542  0.51959743     0.78390
O489        O  0.51556769  0.98516668  0.42355336    -0.70740
O490        O  0.59675803  0.97816088  0.51052346    -0.70960
O491        O  0.59901779  0.98103593  0.42722804    -0.70820
O492        O  0.51335492  0.98309552  0.50691101    -0.70820
O493        O  0.51047964  0.91567338  0.50414244    -0.70780
O494        O  0.59597310  0.91363870  0.42409018    -0.70800
O495        O  0.59339190  0.91074736  0.50749143    -0.70740
O496        O  0.51270538  0.91773663  0.42070768    -0.70930
V497        V  0.55617323  0.98056430  0.46698865     1.35240
V498        V  0.55317122  0.91578947  0.46415167     1.35170
C499        C  0.50009423  0.95245931  0.40772332     0.78500
C500        C  0.60889784  0.94317747  0.52354645     0.78560
C501        C  0.61193024  0.94716415  0.41204466     0.78430
C502        C  0.49751273  0.94967288  0.51916272     0.78390
O503        O  0.52014117  0.57604729  0.90700287    -0.70740
O504        O  0.60144879  0.49066194  0.91272110    -0.70960
O505        O  0.60385149  0.57421572  0.91219350    -0.70820
O506        O  0.51740677  0.49331361  0.90693443    -0.70820
O507        O  0.52093378  0.49169824  0.83953763    -0.70780
O508        O  0.60609588  0.57334008  0.84470362    -0.70800
O509        O  0.60487550  0.49023395  0.84528127    -0.70740
O510        O  0.52263510  0.57486586  0.83949405    -0.70930
V511        V  0.56085601  0.53346992  0.90841461     1.35240
V512        V  0.56366533  0.53247351  0.84359723     1.35170
C513        C  0.50695353  0.58923481  0.87237828     0.78500
C514        C  0.61751981  0.47653364  0.87996082     0.78560
C515        C  0.61944491  0.58766184  0.87911693     0.78430
C516        C  0.50371634  0.47968399  0.87226364     0.78390
O517        O  0.09881894  0.99323775  0.40207931    -0.70740
O518        O  0.01682664  0.07864420  0.40732963    -0.70960
O519        O  0.01560832  0.99572776  0.39914095    -0.70820
O520        O  0.10005095  0.07679963  0.41162595    -0.70820
O521        O  0.10408494  0.08119001  0.34442129    -0.70780
O522        O  0.01524123  0.00371331  0.33211254    -0.70800
O523        O  0.02103402  0.08661603  0.34051781    -0.70740
O524        O  0.09894898  0.99804877  0.33474208    -0.70930
V525        V  0.05799243  0.03620809  0.40373752     1.35240
V526        V  0.05986125  0.04222895  0.33923422     1.35170
C527        C  0.11234294  0.98074124  0.36736706     0.78500
C528        C  0.00503704  0.09704433  0.37459423     0.78560
C529        C  0.00033027  0.98670257  0.36384096     0.78430
C530        C  0.11633166  0.09283976  0.38028793     0.78390
O531        O  0.09460193  0.99509576  0.50897189    -0.70740
O532        O  0.01387601  0.08154474  0.51255720    -0.70960
O533        O  0.09773259  0.07902777  0.51445486    -0.70820
O534        O  0.01087044  0.99788454  0.50880439    -0.70820
O535        O  0.01194539  0.99477309  0.57626564    -0.70780
O536        O  0.09652340  0.07666806  0.58187614    -0.70800
O537        O  0.01259206  0.07779572  0.57991778    -0.70740
O538        O  0.09589322  0.99308857  0.57645761    -0.70930
V539        V  0.05424900  0.03832853  0.51249550     1.35240
V540        V  0.05429705  0.03559829  0.57728131     1.35170
C541        C  0.10945909  0.97976201  0.54199482     0.78500
C542        C  0.99900399  0.09391528  0.54657769     0.78560
C543        C  0.11183535  0.09162254  0.54945386     0.78430
C544        C  0.99649003  0.98292311  0.54187669     0.78390
O545        O  0.50139675  0.99468196  0.00358995    -0.70740
O546        O  0.50367314  0.07851273  0.92144588    -0.70960
O547        O  0.50169694  0.07833950  0.00507431    -0.70820
O548        O  0.50166916  0.99406303  0.91978806    -0.70820
O549        O  0.43444495  0.99330077  0.91978331    -0.70780
O550        O  0.43458680  0.08115154  0.99981647    -0.70800
O551        O  0.43647453  0.07782943  0.91696087    -0.70740
O552        O  0.43422271  0.99780166  0.00423236    -0.70930
V553        V  0.50081335  0.03638200  0.96227693     1.35240
V554        V  0.43623360  0.03735364  0.96011194     1.35170
C555        C  0.46775107  0.98287693  0.01886563     0.78500
C556        C  0.47066104  0.09308193  0.90586121     0.78560
C557        C  0.46775752  0.09435037  0.01639273     0.78430
C558        C  0.46789319  0.97864737  0.90600708     0.78390
O559        O  0.09686782  0.49304377  0.00437922    -0.70740
O560        O  0.01138247  0.49249028  0.92069017    -0.70960
O561        O  0.01324860  0.49292741  0.00517913    -0.70820
O562        O  0.09480870  0.49302162  0.92017485    -0.70820
O563        O  0.09943302  0.42585074  0.92371647    -0.70780
O564        O  0.01040125  0.42565269  0.00042218    -0.70800
O565        O  0.01636129  0.42530595  0.91610736    -0.70740
O566        O  0.09294598  0.42576422  0.00721611    -0.70930
V567        V  0.05405251  0.49166644  0.96257364     1.35240
V568        V  0.05464245  0.42694157  0.96184451     1.35170
C569        C  0.10859824  0.45929672  0.02068236     0.78500
C570        C  0.00055417  0.45876602  0.90308424     0.78560
C571        C  0.99807717  0.45905048  0.01738882     0.78430
C572        C  0.11156563  0.45951874  0.90807218     0.78390
O573        O  0.69567272  0.99479497  0.01127420    -0.70740
O574        O  0.69037960  0.07469058  0.92426361    -0.70960
O575        O  0.69165037  0.07922820  0.00746339    -0.70820
O576        O  0.69413058  0.99081801  0.92716880    -0.70820
O577        O  0.62684928  0.99060519  0.92558102    -0.70780
O578        O  0.62469772  0.07396962  0.01018368    -0.70800
O579        O  0.62318604  0.07415310  0.92680064    -0.70740
O580        O  0.62856090  0.99028691  0.00922004    -0.70930
V581        V  0.69170882  0.03477584  0.96767201     1.35240
V582        V  0.62716470  0.03221970  0.96796152     1.35170
C583        C  0.66289610  0.97838760  0.02445284     0.78500
C584        C  0.65585390  0.08856266  0.91144835     0.78560
C585        C  0.65768795  0.09178384  0.02216502     0.78430
C586        C  0.66062341  0.97641461  0.91204420     0.78390
O587        O  0.10696719  0.59804736  0.92980652    -0.70740
O588        O  0.01778150  0.59934611  0.00703834    -0.70960
O589        O  0.02362068  0.59293526  0.92409435    -0.70820
O590        O  0.10155657  0.60278079  0.01361002    -0.70820
O591        O  0.10193289  0.66976677  0.00606790    -0.70780
O592        O  0.01646805  0.66005147  0.92311429    -0.70800
O593        O  0.01831227  0.66679291  0.00659062    -0.70740
O594        O  0.09977218  0.66460251  0.92209757    -0.70930
V595        V  0.06250293  0.59954253  0.96865063     1.35240
V596        V  0.05927965  0.66404830  0.96465085     1.35170
C597        C  0.11748726  0.63114654  0.91168619     0.78500
C598        C  0.00282489  0.63355379  0.01979659     0.78560
C599        C  0.00592185  0.62457847  0.90926601     0.78430
C600        C  0.11588949  0.63781464  0.02424285     0.78390
C601        C  0.35110887  0.13275169  0.35977238    -0.04300
C602        C  0.33686810  0.15223714  0.39678111    -0.01410
C603        C  0.29419331  0.15326869  0.40574601     0.03580
C604        C  0.26443662  0.13946296  0.37612179    -0.04300
C605        C  0.27782779  0.12116897  0.33891150    -0.01400
C606        C  0.32049091  0.11639957  0.33130608     0.03570
C607        C  0.36524436  0.17415430  0.42470279     0.38220
C608        C  0.24746706  0.10861600  0.30726564     0.38210
C609        C  0.33087657  0.09536496  0.29293980     0.36640
C610        C  0.28095073  0.16785719  0.44614057     0.36640
N611        N  0.33496586  0.07959724  0.26082551    -0.38180
N612        N  0.27089695  0.17883211  0.47877260    -0.38180
N613        N  0.22341471  0.09866470  0.28201148    -0.37630
N614        N  0.38752424  0.19192822  0.44711075    -0.37630
C615        C  0.15069921  0.24380532  0.38852992    -0.04300
C616        C  0.17287151  0.27455139  0.41150863    -0.01410
C617        C  0.16699640  0.31693031  0.40293723     0.03580
C618        C  0.13593135  0.32956193  0.37417939    -0.04300
C619        C  0.11046236  0.29907833  0.35486235    -0.01400
C620        C  0.11869976  0.25653121  0.36069600     0.03570
C621        C  0.20208166  0.26308185  0.44417478     0.38220
C622        C  0.07740926  0.31116103  0.32644790     0.38210
C623        C  0.09612336  0.22642535  0.33519815     0.36640
C624        C  0.19520686  0.34706922  0.42181572     0.36640
N625        N  0.07797582  0.20270085  0.31469626    -0.38180
N626        N  0.21777559  0.37093780  0.43690009    -0.38180
N627        N  0.05171759  0.31997610  0.30268643    -0.37630
N628        N  0.22517943  0.25524264  0.47082726    -0.37630
C629        C  0.44233293  0.33093797  0.06266406    -0.04300
C630        C  0.47588553  0.30796328  0.04653862    -0.01410
C631        C  0.47635211  0.26418489  0.04851436     0.03580
C632        C  0.44182700  0.24236459  0.06326114    -0.04300
C633        C  0.40851614  0.26511404  0.07995609    -0.01400
C634        C  0.41024817  0.30880485  0.08246349     0.03570
C635        C  0.51057087  0.32921914  0.02905719     0.38220
C636        C  0.37258598  0.24347202  0.09530373     0.38210
C637        C  0.37987814  0.33071920  0.10728623     0.36640
C638        C  0.51366490  0.24143887  0.03882137     0.36640
N639        N  0.35567211  0.34815015  0.12705645    -0.38180
N640        N  0.54290389  0.22181932  0.03258574    -0.38180
N641        N  0.34397691  0.22617281  0.10753269    -0.37630
N642        N  0.53824771  0.34739828  0.01629792    -0.37630
C643        C  0.46707376  0.13585472  0.16767240    -0.04300
C644        C  0.48830614  0.16496576  0.19382854    -0.01410
C645        C  0.48597080  0.16222141  0.23738322     0.03580
C646        C  0.46321167  0.12994992  0.25513916    -0.04300
C647        C  0.44533886  0.09886730  0.22926627    -0.01400
C648        C  0.44619885  0.10231584  0.18574263     0.03570
C649        C  0.50807137  0.20076684  0.17581453     0.38220
C650        C  0.42456430  0.06401067  0.24771244     0.38210
C651        C  0.42164106  0.07398080  0.16012750     0.36640
C652        C  0.50354614  0.19477267  0.26366933     0.36640
N653        N  0.40159033  0.05152459  0.13999922    -0.38180
N654        N  0.51712805  0.22100347  0.28460483    -0.38180
N655        N  0.40846609  0.03606157  0.26281720    -0.37630
N656        N  0.52094414  0.23001917  0.16002577    -0.37630
C657        C  0.15529505  0.43350796  0.16899492    -0.04300
C658        C  0.13451893  0.46388079  0.19301045    -0.01410
C659        C  0.13235218  0.45988378  0.23665381     0.03580
C660        C  0.15393776  0.42760937  0.25735432    -0.04300
C661        C  0.17668523  0.39869667  0.23323217    -0.01400
C662        C  0.17457896  0.39978989  0.18950500     0.03570
C663        C  0.11687273  0.50024153  0.17321888     0.38220
C664        C  0.20404786  0.36878950  0.25314284     0.38210
C665        C  0.19217185  0.36578253  0.16557405     0.36640
C666        C  0.10778952  0.48892214  0.26039526     0.36640
N667        N  0.20609982  0.33865738  0.14649224    -0.38180
N668        N  0.08906127  0.51145263  0.28102200    -0.38180
N669        N  0.22591541  0.34497310  0.26894399    -0.37630
N670        N  0.10311511  0.52935863  0.15734783    -0.37630
C671        C  0.34489951  0.44521019  0.03873339    -0.04300
C672        C  0.33243043  0.46870089  0.07370190    -0.01410
C673        C  0.29028743  0.47137798  0.08398735     0.03580
C674        C  0.25936096  0.45241178  0.05820873    -0.04300
C675        C  0.27184806  0.42959597  0.02268255    -0.01400
C676        C  0.31417941  0.42597552  0.01311974     0.03570
C677        C  0.36328894  0.48603027  0.10234399     0.38220
C678        C  0.24177419  0.40568132  0.99838441     0.38210
C679        C  0.32604508  0.39946430  0.97860153     0.36640
C680        C  0.28008405  0.48873251  0.12430682     0.36640
N681        N  0.33484216  0.37729311  0.95166697    -0.38180
N682        N  0.27275791  0.49960714  0.15778402    -0.38180
N683        N  0.21803302  0.38634872  0.97904775    -0.37630
N684        N  0.38791360  0.49938152  0.12534318    -0.37630
C685        C  0.65594011  0.11361318  0.25802958    -0.04300
C686        C  0.63448098  0.14958743  0.24491109    -0.01410
C687        C  0.63152748  0.15963910  0.20232169     0.03580
C688        C  0.65015183  0.13382494  0.17162236    -0.04300
C689        C  0.67224542  0.09814410  0.18506251    -0.01400
C690        C  0.67472755  0.08801448  0.22758172     0.03570
C691        C  0.61979566  0.17935550  0.27562433     0.38220
C692        C  0.69667090  0.07393026  0.15596810     0.38210
C693        C  0.69965237  0.05259911  0.23977567     0.36640
C694        C  0.61366203  0.19948227  0.19165834     0.36640
N695        N  0.72109031  0.02513916  0.24836546    -0.38180
N696        N  0.60237881  0.23280038  0.18454353    -0.38180
N697        N  0.71629839  0.05463144  0.13300214    -0.37630
N698        N  0.60883054  0.20325917  0.30020013    -0.37630
C699        C  0.67465723  0.24337157  0.06510647    -0.04300
C700        C  0.65025406  0.26381903  0.03446021    -0.01410
C701        C  0.64839577  0.30775458  0.03348775     0.03580
C702        C  0.66985474  0.33189787  0.06368301    -0.04300
C703        C  0.69478473  0.31136435  0.09376241    -0.01400
C704        C  0.69967380  0.26795456  0.09221633     0.03570
C705        C  0.62838868  0.23997757  0.00279796     0.38220
C706        C  0.71521975  0.33479787  0.12701187     0.38210
C707        C  0.73190574  0.24870844  0.11752474     0.36640
C708        C  0.62759011  0.32828699  0.99927453     0.36640
N709        N  0.75763329  0.23331745  0.13758118    -0.38180
N710        N  0.61302608  0.34538582  0.97119832    -0.38180
N711        N  0.73147956  0.35335820  0.15359676    -0.37630
N712        N  0.61170808  0.22047263  0.97722611    -0.37630
C713        C  0.95295963  0.24625038  0.37405781    -0.04300
C714        C  0.98136063  0.26702754  0.40122977    -0.01410
C715        C  0.98412235  0.31090429  0.40094627     0.03580
C716        C  0.95738373  0.33413985  0.37543780    -0.04300
C717        C  0.92495786  0.31399477  0.35403594    -0.01400
C718        C  0.92529659  0.27070768  0.34958443     0.03570
C719        C  0.00502051  0.24370806  0.43159052     0.38220
C720        C  0.89049415  0.33824421  0.33765270     0.38210
C721        C  0.89795454  0.25241809  0.31825472     0.36640
C722        C  0.01078133  0.33295959  0.42974712     0.36640
N723        N  0.87567449  0.23948705  0.29276304    -0.38180
N724        N  0.02980990  0.35248250  0.45344868    -0.38180
N725        N  0.86296669  0.35766034  0.32495132    -0.37630
N726        N  0.02254808  0.22436672  0.45633023    -0.37630
C727        C  0.85394996  0.13119742  0.36911457    -0.04300
C728        C  0.83382547  0.14120558  0.33154686    -0.01410
C729        C  0.79058046  0.14570513  0.33004416     0.03580
C730        C  0.76597106  0.13043736  0.36293075    -0.04300
C731        C  0.78687893  0.11842924  0.40009558    -0.01400
C732        C  0.83038406  0.12104255  0.40363716     0.03570
C733        C  0.85788226  0.14682462  0.29438279     0.38220
C734        C  0.76455623  0.10480456  0.43553570     0.38210
C735        C  0.85141127  0.11527399  0.44313648     0.36640
C736        C  0.77227176  0.16906025  0.29594996     0.36640
N737        N  0.86977676  0.11175264  0.47397884    -0.38180
N738        N  0.75786189  0.18770491  0.26873376    -0.38180
N739        N  0.74739461  0.09457489  0.46476229    -0.37630
N740        N  0.87720508  0.15036901  0.26468671    -0.37630
C741        C  0.96878086  0.43054831  0.16744038    -0.04300
C742        C  0.96179892  0.39275632  0.18702249    -0.01410
C743        C  0.95695270  0.39148903  0.23044094     0.03580
C744        C  0.96709131  0.42672614  0.25656174    -0.04300
C745        C  0.97831718  0.46398322  0.23594271    -0.01400
C746        C  0.97624423  0.46629396  0.19200389     0.03570
C747        C  0.95622177  0.35542273  0.16163892     0.38220
C748        C  0.99079216  0.50084518  0.25889290     0.38210
C749        C  0.97728042  0.50625139  0.17185197     0.36640
C750        C  0.93747883  0.35431749  0.24566366     0.36640
N751        N  0.97639784  0.53754785  0.15465041    -0.38180
N752        N  0.92235830  0.32323721  0.25459041    -0.38180
N753        N  0.99984880  0.53075395  0.27705526    -0.37630
N754        N  0.95176315  0.32578967  0.14140516    -0.37630
C755        C  0.85039834  0.45113259  0.07200921    -0.04300
C756        C  0.82403224  0.45689451  0.10728584    -0.01410
C757        C  0.78053615  0.45596211  0.10238205     0.03580
C758        C  0.76229890  0.45220095  0.06269449    -0.04300
C759        C  0.78750611  0.45053965  0.02779865    -0.01400
C760        C  0.83081763  0.44690770  0.03226135     0.03570
C761        C  0.84025429  0.46455092  0.14912223     0.38220
C762        C  0.76788713  0.45196303  0.98725475     0.38210
C763        C  0.85401364  0.43382662  0.99644685     0.36640
C764        C  0.75412427  0.45768432  0.13846878     0.36640
N765        N  0.87323521  0.42297111  0.96839864    -0.38180
N766        N  0.73294213  0.45907712  0.16708118    -0.38180
N767        N  0.75051155  0.45455280  0.95577276    -0.37630
N768        N  0.85265280  0.47086595  0.18258108    -0.37630
C769        C  0.94324092  0.64537182  0.16569432    -0.04300
C770        C  0.90896339  0.65304873  0.19247689    -0.01410
C771        C  0.91277532  0.64569248  0.23578351     0.03580
C772        C  0.95229994  0.64395944  0.25488085    -0.04300
C773        C  0.98665197  0.64765055  0.22905643    -0.01400
C774        C  0.98227273  0.63959690  0.18603626     0.03570
C775        C  0.87167044  0.67375165  0.17785344     0.38220
C776        C  0.02292553  0.66936494  0.24477366     0.38210
C777        C  0.01640357  0.61992398  0.16520679     0.36640
C778        C  0.87620659  0.64443950  0.26125635     0.36640
N779        N  0.04268714  0.60277980  0.14802552    -0.38180
N780        N  0.84714238  0.64315451  0.28171116    -0.38180
N781        N  0.05044719  0.68851174  0.25819941    -0.37630
N782        N  0.84185371  0.69051735  0.16663330    -0.37630
C783        C  0.84924000  0.61835053  0.04130227    -0.04300
C784        C  0.82341582  0.58989297  0.06156909    -0.01410
C785        C  0.77990483  0.59378733  0.05922246     0.03580
C786        C  0.76144893  0.62470300  0.03393775    -0.04300
C787        C  0.78742874  0.64856984  0.00828239    -0.01400
C788        C  0.83106088  0.64584933  0.01230012     0.03570
C789        C  0.84268966  0.56019560  0.08909481     0.38220
C790        C  0.76910766  0.67899150  0.98070142     0.38210
C791        C  0.85680010  0.67403145  0.98930074     0.36640
C792        C  0.75493494  0.56978027  0.08716562     0.36640
N793        N  0.87723183  0.69656757  0.97086730    -0.38180
N794        N  0.73496028  0.55122571  0.10994127    -0.38180
N795        N  0.75339867  0.70410445  0.96041782    -0.37630
N796        N  0.86173338  0.54007681  0.11194181    -0.37630
C797        C  0.84750477  0.95178046  0.35263496    -0.04300
C798        C  0.82488272  0.93288860  0.32001299    -0.01410
C799        C  0.78208596  0.92676082  0.32317339     0.03580
C800        C  0.75918073  0.94773837  0.35443367    -0.04300
C801        C  0.78181062  0.97099872  0.38488834    -0.01400
C802        C  0.82578166  0.97194213  0.38459301     0.03570
C803        C  0.84536569  0.92209272  0.28168266     0.38220
C804        C  0.75991169  0.99325383  0.41673397     0.38210
C805        C  0.84917136  0.99452663  0.41602928     0.36640
C806        C  0.76312748  0.89629586  0.29539062     0.36640
N807        N  0.86965841  0.01271244  0.43967532    -0.38180
N808        N  0.75000869  0.87138270  0.27263840    -0.38180
N809        N  0.74078064  0.00981426  0.44194755    -0.37630
N810        N  0.86051769  0.91532370  0.25003164    -0.37630
C811        C  0.95015841  0.83927200  0.36050972    -0.04300
C812        C  0.96837874  0.81752648  0.39394316    -0.01410
C813        C  0.96772590  0.77348481  0.39418970     0.03580
C814        C  0.94636341  0.75120142  0.36217006    -0.04300
C815        C  0.92436079  0.77425377  0.33162190    -0.01400
C816        C  0.93125597  0.81675957  0.32782712     0.03570
C817        C  0.98760642  0.84061054  0.42782769     0.38220
C818        C  0.89393393  0.75477404  0.30397160     0.38210
C819        C  0.92268679  0.83636918  0.28831343     0.36640
C820        C  0.98729418  0.75186962  0.42828806     0.36640
N821        N  0.91780524  0.85049617  0.25571472    -0.38180
N822        N  0.00192002  0.73497811  0.45643875    -0.38180
N823        N  0.86941109  0.74010530  0.28170267    -0.37630
N824        N  0.00266535  0.85973733  0.45462538    -0.37630
C825        C  0.63835640  0.94334117  0.26093987    -0.04300
C826        C  0.62461084  0.97478067  0.23422113    -0.01410
C827        C  0.62646647  0.96904530  0.19064312     0.03580
C828        C  0.64494454  0.93257989  0.17375547    -0.04300
C829        C  0.65859433  0.90127822  0.20198581    -0.01400
C830        C  0.65051380  0.90499702  0.24440857     0.03570
C831        C  0.60897636  0.01295582  0.25191347     0.38220
C832        C  0.68485992  0.86695315  0.18939241     0.38210
C833        C  0.65687291  0.86994262  0.27191423     0.36640
C834        C  0.61095663  0.00155209  0.16397810     0.36640
N835        N  0.66156433  0.84204656  0.29388805    -0.38180
N836        N  0.59963813  0.02802400  0.14259979    -0.38180
N837        N  0.70593527  0.83909226  0.18118883    -0.37630
N838        N  0.59662277  0.04343547  0.26635521    -0.37630
C839        C  0.65919599  0.82742063  0.06521155    -0.04300
C840        C  0.62499769  0.80377694  0.05172588    -0.01410
C841        C  0.62682571  0.75989977  0.05157654     0.03580
C842        C  0.66191243  0.73881984  0.06859957    -0.04300
C843        C  0.69404641  0.76358810  0.08675137    -0.01400
C844        C  0.69435093  0.80698349  0.08136682     0.03570
C845        C  0.58850589  0.82538308  0.03676032     0.38220
C846        C  0.72579167  0.74505143  0.11313649     0.38210
C847        C  0.73104421  0.83086774  0.09236316     0.36640
C848        C  0.59335071  0.73740836  0.03165208     0.36640
N849        N  0.76034859  0.85004695  0.10068990    -0.38180
N850        N  0.56664015  0.72003486  0.01479501    -0.38180
N851        N  0.75107214  0.73039514  0.13430027    -0.37630
N852        N  0.56063510  0.84441084  0.02444132    -0.37630
C853        C  0.44860292  0.94416144  0.25843820    -0.04300
C854        C  0.47407553  0.97190263  0.23675779    -0.01410
C855        C  0.47489307  0.97093515  0.19275838     0.03580
C856        C  0.45112384  0.94142316  0.16987747    -0.04300
C857        C  0.42414444  0.91520069  0.19163117    -0.01400
C858        C  0.42462143  0.91493512  0.23535309     0.03570
C859        C  0.49701571  0.00341203  0.25983739     0.38220
C860        C  0.39487841  0.88885857  0.16889558     0.38210
C861        C  0.40147145  0.88297461  0.25613659     0.36640
C862        C  0.49796271  0.00213607  0.17116273     0.36640
N863        N  0.38285834  0.85666553  0.27123969    -0.38180
N864        N  0.51465769  0.02826335  0.15376825    -0.38180
N865        N  0.37157491  0.86785306  0.15085377    -0.37630
N866        N  0.51332383  0.02902903  0.27949030    -0.37630
C867        C  0.47916578  0.83394499  0.06195336    -0.04300
C868        C  0.50110302  0.80512710  0.08742020    -0.01410
C869        C  0.49594291  0.76186032  0.08117345     0.03580
C870        C  0.47150360  0.74679324  0.04746008    -0.04300
C871        C  0.45458846  0.77563768  0.01903034    -0.01400
C872        C  0.45596869  0.81850616  0.02745962     0.03570
C873        C  0.52925871  0.81971141  0.12003778     0.38220
C874        C  0.43457505  0.76151021  0.98103169     0.38210
C875        C  0.43025702  0.84586904  0.00223826     0.36640
C876        C  0.51428428  0.73317094  0.11067046     0.36640
N877        N  0.40945582  0.86731939  0.98213082    -0.38180
N878        N  0.52899884  0.71032903  0.13422275    -0.38180
N879        N  0.41852273  0.75202118  0.95008433    -0.37630
N880        N  0.55163603  0.83121639  0.14616000    -0.37630
C881        C  0.26244409  0.93311634  0.36962354    -0.04300
C882        C  0.29142478  0.90140213  0.35831910    -0.01410
C883        C  0.33410922  0.90752272  0.36454945     0.03580
C884        C  0.34962223  0.94733595  0.37266988    -0.04300
C885        C  0.32234487  0.97913420  0.38415699    -0.01400
C886        C  0.27920165  0.97150851  0.38492102     0.03570
C887        C  0.27947045  0.86288077  0.33782179     0.38220
C888        C  0.33905430  0.01914939  0.39643019     0.38210
C889        C  0.25287246  0.00300580  0.40265804     0.36640
C890        C  0.36263816  0.87259912  0.36311424     0.36640
N891        N  0.23129348  0.02809728  0.41632604    -0.38180
N892        N  0.38541743  0.84482262  0.36310361    -0.38180
N893        N  0.35282037  0.05079477  0.40672324    -0.37630
N894        N  0.27253867  0.83121050  0.32191391    -0.37630
C895        C  0.15037365  0.82890604  0.36434287    -0.04300
C896        C  0.16929057  0.80867480  0.33070429    -0.01410
C897        C  0.17307728  0.76525748  0.32999412     0.03580
C898        C  0.15064293  0.74064768  0.35831658    -0.04300
C899        C  0.12785636  0.76132771  0.38971228    -0.01400
C900        C  0.12887568  0.80522964  0.39332545     0.03570
C901        C  0.18400308  0.83283416  0.29609106     0.38220
C902        C  0.10386183  0.73752194  0.41838688     0.38210
C903        C  0.10751787  0.82668743  0.42610868     0.36640
C904        C  0.20248456  0.74674101  0.30161708     0.36640
N905        N  0.09068249  0.84581118  0.45121008    -0.38180
N906        N  0.22625503  0.73265116  0.27895275    -0.38180
N907        N  0.08574882  0.71706486  0.44103966    -0.37630
N908        N  0.19529371  0.85219050  0.26840300    -0.37630
C909        C  0.26689099  0.65047294  0.05590448    -0.04300
C910        C  0.29308413  0.62568837  0.08119440    -0.01410
C911        C  0.33622929  0.62654208  0.07653138     0.03580
C912        C  0.35343562  0.64878114  0.04351995    -0.04300
C913        C  0.32641863  0.66944432  0.01518492    -0.01400
C914        C  0.28352376  0.67114236  0.02192308     0.03570
C915        C  0.27526628  0.59988597  0.11267174     0.38220
C916        C  0.34167192  0.68850604  0.97820901     0.38210
C917        C  0.25678628  0.69505621  0.99437496     0.36640
C918        C  0.36272594  0.60774894  0.10800256     0.36640
N919        N  0.23551171  0.71384678  0.97216999    -0.38180
N920        N  0.38392386  0.59347293  0.13347030    -0.38180
N921        N  0.35029807  0.70349686  0.94716007    -0.37630
N922        N  0.25943697  0.58063418  0.13792363    -0.37630
C923        C  0.15995220  0.62714805  0.25777631    -0.04300
C924        C  0.12746648  0.62812235  0.22887234    -0.01410
C925        C  0.13285457  0.64648481  0.19000429     0.03580
C926        C  0.17282534  0.65025661  0.17337916    -0.04300
C927        C  0.20721034  0.64534621  0.20220963    -0.01400
C928        C  0.20017794  0.63476599  0.24415766     0.03570
C929        C  0.09006521  0.60636143  0.23825120     0.38220
C930        C  0.24954979  0.65549800  0.19253933     0.38210
C931        C  0.23428680  0.63271410  0.27418233     0.36640
C932        C  0.09978180  0.67210388  0.17342209     0.36640
N933        N  0.26135153  0.63115386  0.29816509    -0.38180
N934        N  0.07451825  0.69398123  0.16002140    -0.38180
N935        N  0.28377555  0.66412508  0.18694022    -0.37630
N936        N  0.06095830  0.58738318  0.24602421    -0.37630
C937        C  0.85607951  0.62714132  0.87102248    -0.04300
C938        C  0.83968558  0.66660776  0.86296694    -0.01410
C939        C  0.79799011  0.67536787  0.87139041     0.03580
C940        C  0.76975064  0.64241799  0.88096225    -0.04300
C941        C  0.78869941  0.60565040  0.89712697    -0.01400
C942        C  0.83167107  0.59828833  0.89210871     0.03570
C943        C  0.86678769  0.69935796  0.84861376     0.38220
C944        C  0.76634998  0.57810342  0.92405453     0.38210
C945        C  0.85105823  0.56194555  0.91017549     0.36640
C946        C  0.78825406  0.71899737  0.87762861     0.36640
N947        N  0.86627260  0.53329331  0.92555191    -0.38180
N948        N  0.78145370  0.75397846  0.88279035    -0.38180
N949        N  0.74911684  0.55608312  0.94604965    -0.37630
N950        N  0.88843865  0.72536220  0.83737171    -0.37630
C951        C  0.95967115  0.62375570  0.75911975    -0.04300
C952        C  0.97806470  0.66090930  0.74639350    -0.01410
C953        C  0.98157882  0.67008515  0.70363353     0.03580
C954        C  0.96560297  0.64252022  0.67198982    -0.04300
C955        C  0.94622603  0.60551001  0.68553514    -0.01400
C956        C  0.94470236  0.59582701  0.72832783     0.03570
C957        C  0.99123977  0.69138928  0.77766045     0.38220
C958        C  0.92427945  0.57848151  0.65625621     0.38210
C959        C  0.92681845  0.55687004  0.74038873     0.36640
C960        C  0.99974058  0.70976703  0.69450792     0.36640
N961        N  0.91213811  0.52539345  0.74835084    -0.38180
N962        N  0.01291675  0.74297356  0.69237215    -0.38180
N963        N  0.90661480  0.55661057  0.63336055    -0.37630
N964        N  0.00158556  0.71573596  0.80243018    -0.37630
C965        C  0.65014340  0.94021978  0.76164204    -0.04300
C966        C  0.68391021  0.91997141  0.74359274    -0.01410
C967        C  0.68578186  0.91577843  0.70028392     0.03580
C968        C  0.65748142  0.93770464  0.67414477    -0.04300
C969        C  0.62579443  0.96150014  0.69304624    -0.01400
C970        C  0.62204300  0.96209405  0.73668353     0.03570
C971        C  0.71659931  0.90282589  0.76997957     0.38220
C972        C  0.59687601  0.98449717  0.66764801     0.38210
C973        C  0.59079540  0.98595569  0.75736317     0.36640
C974        C  0.71539765  0.88634318  0.68378998     0.36640
N975        N  0.56811270  0.00424086  0.77789661    -0.38180
N976        N  0.73950718  0.86217037  0.67294545    -0.38180
N977        N  0.57412261  0.00108607  0.64527720    -0.37630
N978        N  0.74255851  0.88919972  0.79102491    -0.37630
C979        C  0.64768974  0.82655797  0.85651440    -0.04300
C980        C  0.64488077  0.80637483  0.89558415    -0.01410
C981        C  0.64795505  0.76279352  0.89847702     0.03580
C982        C  0.64995189  0.73783526  0.86262588    -0.04300
C983        C  0.65045331  0.75646079  0.82363001    -0.01400
C984        C  0.65199056  0.80009537  0.82041528     0.03570
C985        C  0.63977395  0.82948735  0.93360134     0.38220
C986        C  0.65245738  0.73010974  0.78668238     0.38210
C987        C  0.66139818  0.81559269  0.77955659     0.36640
C988        C  0.65345898  0.74323963  0.93850389     0.36640
N989        N  0.66808282  0.82531995  0.74583687    -0.38180
N990        N  0.65955835  0.72606308  0.96932647    -0.38180
N991        N  0.65412171  0.70907581  0.75736884    -0.37630
N992        N  0.63589716  0.84812848  0.96410334    -0.37630
C993        C  0.95081550  0.83425438  0.53795478    -0.04300
C994        C  0.92957821  0.80373158  0.51369081    -0.01410
C995        C  0.93190529  0.76137438  0.52467504     0.03580
C996        C  0.95941301  0.74843538  0.55681384    -0.04300
C997        C  0.98347778  0.77882406  0.57804634    -0.01400
C998        C  0.97571091  0.82123144  0.57193128     0.03570
C999        C  0.90398384  0.81591070  0.47832549     0.38220
C1000       C  0.01944419  0.76707780  0.60270716     0.38210
C1001       C  0.99233811  0.85111217  0.60198699     0.36640
C1002       C  0.90496150  0.73163981  0.50357409     0.36640
N1003       N  0.00580362  0.87472316  0.62596867    -0.38180
N1004       N  0.88340803  0.70803612  0.48663525    -0.38180
N1005       N  0.04994518  0.75875669  0.62011924    -0.37630
N1006       N  0.88339514  0.82569664  0.45028662    -0.37630
C1007       C  0.84623993  0.93975399  0.56117636    -0.04300
C1008       C  0.82348573  0.97458330  0.54679734    -0.01410
C1009       C  0.77991774  0.97480762  0.54859254     0.03580
C1010       C  0.75881979  0.93985037  0.56254691    -0.04300
C1011       C  0.78112356  0.90498107  0.57589196    -0.01400
C1012       C  0.82417705  0.90713226  0.58027571     0.03570
C1013       C  0.84417101  0.01102916  0.53244390     0.38220
C1014       C  0.75982047  0.86606311  0.58238315     0.38210
C1015       C  0.84538569  0.87625947  0.60551326     0.36640
C1016       C  0.75597961  0.01073912  0.53674538     0.36640
N1017       N  0.86214840  0.85166667  0.62570347    -0.38180
N1018       N  0.73466071  0.03826683  0.52828601    -0.38180
N1019       N  0.74280761  0.83477144  0.58613450    -0.37630
N1020       N  0.86049268  0.04090817  0.52209495    -0.37630
C1021       C  0.35560854  0.62185697  0.86887531    -0.04300
C1022       C  0.33084259  0.60891169  0.90150061    -0.01410
C1023       C  0.28707513  0.60653863  0.89658919     0.03580
C1024       C  0.26692598  0.61606377  0.85763310    -0.04300
C1025       C  0.29426200  0.62483999  0.82354039    -0.01400
C1026       C  0.33764250  0.62696461  0.82952094     0.03570
C1027       C  0.35103832  0.59759390  0.94019168     0.38220
C1028       C  0.28062392  0.63252437  0.78121055     0.38210
C1029       C  0.36475163  0.63417891  0.79453987     0.36640
C1030       C  0.26418634  0.59502793  0.93287267     0.36640
N1031       N  0.38638455  0.63961484  0.76683841    -0.38180
N1032       N  0.24714353  0.58728265  0.96314296    -0.38180
N1033       N  0.27300827  0.63722158  0.74628108    -0.37630
N1034       N  0.36774143  0.58828591  0.97073763    -0.37630
C1035       C  0.15149876  0.63746781  0.75880474    -0.04300
C1036       C  0.11987572  0.61885799  0.73433060    -0.01410
C1037       C  0.11926883  0.62316278  0.69042751     0.03580
C1038       C  0.15100928  0.64539479  0.67055788    -0.04300
C1039       C  0.18093816  0.66632218  0.69574276    -0.01400
C1040       C  0.17887719  0.66495640  0.73938345     0.03570
C1041       C  0.08599790  0.59891240  0.75454480     0.38220
C1042       C  0.21510914  0.68807673  0.67704481     0.38210
C1043       C  0.20342262  0.69367850  0.76463794     0.36640
C1044       C  0.08511306  0.60625543  0.66599567     0.36640
N1045       N  0.22277542  0.71670113  0.78482656    -0.38180
N1046       N  0.05769987  0.59309698  0.64641289    -0.38180
N1047       N  0.24249458  0.70518198  0.66212975    -0.37630
N1048       N  0.05790650  0.58490128  0.77098439    -0.37630
C1049       C  0.26075062  0.94852791  0.55358635    -0.04300
C1050       C  0.27721702  0.96758081  0.58942882    -0.01410
C1051       C  0.32046070  0.96815567  0.59647029     0.03580
C1052       C  0.34818461  0.95217923  0.56581703    -0.04300
C1053       C  0.33080011  0.93599527  0.52819018    -0.01400
C1054       C  0.28752462  0.93490300  0.52216761     0.03570
C1055       C  0.24929231  0.98395104  0.62054159     0.38220
C1056       C  0.35648300  0.91541200  0.49759700     0.38210
C1057       C  0.27000481  0.91708047  0.48444040     0.36640
C1058       C  0.33431236  0.97982715  0.63795183     0.36640
N1059       N  0.25533656  0.90178885  0.45513914    -0.38180
N1060       N  0.34237300  0.98609429  0.67262171    -0.38180
N1061       N  0.37662881  0.89861640  0.47320621    -0.37630
N1062       N  0.22696463  0.99718464  0.64511971    -0.37630
C1063       C  0.16475160  0.82868702  0.53716356    -0.04300
C1064       C  0.12599568  0.80754300  0.54019954    -0.01410
C1065       C  0.12433326  0.76381513  0.54289068     0.03580
C1066       C  0.16037735  0.74108239  0.55043039    -0.04300
C1067       C  0.19869707  0.75999419  0.54463667    -0.01400
C1068       C  0.20047465  0.80223846  0.53343077     0.03570
C1069       C  0.08715158  0.82888812  0.54025253     0.38220
C1070       C  0.23630402  0.73565460  0.54951835     0.38210
C1071       C  0.23855220  0.81591502  0.51486476     0.36640
C1072       C  0.08600690  0.74115546  0.53640479     0.36640
N1073       N  0.26991872  0.82446129  0.50046689    -0.38180
N1074       N  0.05657088  0.72143910  0.53049013    -0.38180
N1075       N  0.26619272  0.71617553  0.55370722    -0.37630
N1076       N  0.05532803  0.84501589  0.53851746    -0.37630
C1077       C  0.46662365  0.82581130  0.87045335    -0.04300
C1078       C  0.43180711  0.80771400  0.85066647    -0.01410
C1079       C  0.42891095  0.76428172  0.84616782     0.03580
C1080       C  0.45740428  0.73786407  0.86735909    -0.04300
C1081       C  0.49046653  0.75671203  0.89058372    -0.01400
C1082       C  0.49482741  0.80041369  0.89174932     0.03570
C1083       C  0.39878815  0.83420278  0.83481803     0.38220
C1084       C  0.51979570  0.73164907  0.91374046     0.38210
C1085       C  0.52672519  0.82022897  0.91655255     0.36640
C1086       C  0.39816875  0.74754002  0.81714756     0.36640
N1087       N  0.55059824  0.83834049  0.93663461    -0.38180
N1088       N  0.37359735  0.73486437  0.79370156    -0.38180
N1089       N  0.54354949  0.71100088  0.93115653    -0.37630
N1090       N  0.37259102  0.85538607  0.82214935    -0.37630
C1091       C  0.46799125  0.92082874  0.75558560    -0.04300
C1092       C  0.45746716  0.88528142  0.72977714    -0.01410
C1093       C  0.45546783  0.88811578  0.68605641     0.03580
C1094       C  0.46262076  0.92587014  0.66673025    -0.04300
C1095       C  0.47360838  0.96079249  0.69065353    -0.01400
C1096       C  0.47501588  0.95890176  0.73445939     0.03570
C1097       C  0.44640851  0.84514835  0.74598717     0.38220
C1098       C  0.48206625  0.99929734  0.66943078     0.38210
C1099       C  0.48120568  0.99751307  0.75635811     0.36640
C1100       C  0.44534270  0.85197233  0.66027547     0.36640
N1101       N  0.48511968  0.02930579  0.77279243    -0.38180
N1102       N  0.43733055  0.82334313  0.63965054    -0.38180
N1103       N  0.48885440  0.02910325  0.65106478    -0.37630
N1104       N  0.43862241  0.81158518  0.75552398    -0.37630
C1105       C  0.45826875  0.24491687  0.87158817    -0.04300
C1106       C  0.42117635  0.26262816  0.85681219    -0.01410
C1107       C  0.41729353  0.30598058  0.85387807     0.03580
C1108       C  0.44801062  0.33277674  0.87196543    -0.04300
C1109       C  0.48364443  0.31412714  0.89050450    -0.01400
C1110       C  0.48974901  0.27074951  0.88790269     0.03570
C1111       C  0.38775001  0.23574277  0.84203634     0.38220
C1112       C  0.51450926  0.33932894  0.91172606     0.38210
C1113       C  0.52964501  0.25297494  0.89864173     0.36640
C1114       C  0.38275616  0.32142473  0.82915525     0.36640
N1115       N  0.56170657  0.23856673  0.90592931    -0.38180
N1116       N  0.35428720  0.33122322  0.80926983    -0.38180
N1117       N  0.53881995  0.36076707  0.92759948    -0.37630
N1118       N  0.36122851  0.21427034  0.83034021    -0.37630
C1119       C  0.47563331  0.14268859  0.75819119    -0.04300
C1120       C  0.50065362  0.16544315  0.73054264    -0.01410
C1121       C  0.49578033  0.16040656  0.68695447     0.03580
C1122       C  0.46711011  0.13129645  0.67033329    -0.04300
C1123       C  0.44430869  0.10686660  0.69834861    -0.01400
C1124       C  0.44671207  0.11408896  0.74144418     0.03570
C1125       C  0.53017917  0.19572174  0.74654889     0.38220
C1126       C  0.41672660  0.07498922  0.68261714     0.38210
C1127       C  0.41664780  0.09446405  0.76798179     0.36640
C1128       C  0.51853980  0.18717800  0.65953271     0.36640
N1129       N  0.39264969  0.07880911  0.78898887    -0.38180
N1130       N  0.53678676  0.20859386  0.63778786    -0.38180
N1131       N  0.39473553  0.05027893  0.66847755    -0.37630
N1132       N  0.55298749  0.22085319  0.75875221    -0.37630
C1133       C  0.16201046  0.32982939  0.56953994    -0.04300
C1134       C  0.14215481  0.30788598  0.53627531    -0.01410
C1135       C  0.14213707  0.26387206  0.53472068     0.03580
C1136       C  0.16116524  0.24084917  0.56674750    -0.04300
C1137       C  0.17989781  0.26277132  0.60041182    -0.01400
C1138       C  0.18350940  0.30634830  0.59989669     0.03570
C1139       C  0.12301207  0.33035437  0.50271058     0.38220
C1140       C  0.19149327  0.24128722  0.63803951     0.38210
C1141       C  0.21102417  0.32676209  0.62985501     0.36640
C1142       C  0.12296997  0.24204078  0.49995058     0.36640
N1143       N  0.23313535  0.34308001  0.65351779    -0.38180
N1144       N  0.10822585  0.22363672  0.47247820    -0.38180
N1145       N  0.19900759  0.22603403  0.66962882    -0.37630
N1146       N  0.10943602  0.34907319  0.47533414    -0.37630
C1147       C  0.26458136  0.12772706  0.56800873    -0.04300
C1148       C  0.28675121  0.15091895  0.59799964    -0.01410
C1149       C  0.32850338  0.15977147  0.59252180     0.03580
C1150       C  0.35251025  0.13414756  0.56615187    -0.04300
C1151       C  0.33148977  0.10377683  0.54133028    -0.01400
C1152       C  0.28742314  0.10199665  0.54086330     0.03570
C1153       C  0.26854889  0.15885449  0.63802078     0.38220
C1154       C  0.35483836  0.07333863  0.51793884     0.38210
C1155       C  0.26618727  0.07071675  0.51634952     0.36640
C1156       C  0.34625438  0.19505223  0.61491237     0.36640
N1157       N  0.24909315  0.04442984  0.49846086    -0.38180
N1158       N  0.36019136  0.22313852  0.63296566    -0.38180
N1159       N  0.37364210  0.04886812  0.49961559    -0.37630
N1160       N  0.25569221  0.16228090  0.67119034    -0.37630
C1161       C  0.26177814  0.44843765  0.86177261    -0.04300
C1162       C  0.28666194  0.42803528  0.83173214    -0.01410
C1163       C  0.32982994  0.43317506  0.83245786     0.03580
C1164       C  0.35003516  0.44993901  0.86783037    -0.04300
C1165       C  0.32625384  0.46839561  0.89915877    -0.01400
C1166       C  0.28238899  0.46860503  0.89585384     0.03570
C1167       C  0.26867117  0.39890448  0.80177464     0.38220
C1168       C  0.34727651  0.48662104  0.93486765     0.38210
C1169       C  0.25899944  0.48766665  0.92875955     0.36640
C1170       C  0.35383282  0.42189695  0.79632294     0.36640
N1171       N  0.24006527  0.50151442  0.95572560    -0.38180
N1172       N  0.37314733  0.41357863  0.76743483    -0.38180
N1173       N  0.36478666  0.50066814  0.96328039    -0.37630
N1174       N  0.25450953  0.37552504  0.77796083    -0.37630
C1175       C  0.14745466  0.46363471  0.75636023    -0.04300
C1176       C  0.11772923  0.43397713  0.74245924    -0.01410
C1177       C  0.11050521  0.42674034  0.69951656     0.03580
C1178       C  0.13458778  0.44692667  0.66947290    -0.04300
C1179       C  0.16324281  0.47754522  0.68310993    -0.01400
C1180       C  0.16909345  0.48631741  0.72591966     0.03570
C1181       C  0.09687464  0.40779567  0.77199900     0.38220
C1182       C  0.18976862  0.49783211  0.65345269     0.38210
C1183       C  0.20087631  0.51599910  0.73778581     0.36640
C1184       C  0.07821577  0.39790966  0.68680665     0.36640
N1185       N  0.22836062  0.53789592  0.74528404    -0.38180
N1186       N  0.05163902  0.37511267  0.67856631    -0.38180
N1187       N  0.21104077  0.51401504  0.63003676    -0.37630
N1188       N  0.08023770  0.38665763  0.79526731    -0.37630
C1189       C  0.96140889  0.43666566  0.75063431    -0.04300
C1190       C  0.93600500  0.40869793  0.72750490    -0.01410
C1191       C  0.93688529  0.40793681  0.68375245     0.03580
C1192       C  0.96584442  0.43236579  0.66236491    -0.04300
C1193       C  0.99318129  0.45823833  0.68551399    -0.01400
C1194       C  0.99125444  0.45994836  0.72935383     0.03570
C1195       C  0.90954980  0.37971499  0.74885334     0.38220
C1196       C  0.02433954  0.48201004  0.66434329     0.38210
C1197       C  0.02122219  0.48427921  0.75261618     0.36640
C1198       C  0.90690325  0.38275778  0.66072647     0.36640
N1199       N  0.04604021  0.50199407  0.77194705    -0.38180
N1200       N  0.88297908  0.36271257  0.64239843    -0.38180
N1201       N  0.04925005  0.50066373  0.64720473    -0.37630
N1202       N  0.88852821  0.35665867  0.76595534    -0.37630
C1203       C  0.85350189  0.45684026  0.85439743    -0.04300
C1204       C  0.84211678  0.41992622  0.87390810    -0.01410
C1205       C  0.80041770  0.41191212  0.88229129     0.03580
C1206       C  0.76828244  0.43763998  0.86558389    -0.04300
C1207       C  0.78005484  0.47299678  0.84251461    -0.01400
C1208       C  0.82232193  0.48323954  0.83838516     0.03570
C1209       C  0.87332242  0.38834355  0.88275314     0.38220
C1210       C  0.74934142  0.49772480  0.82045808     0.38210
C1211       C  0.83336090  0.52018392  0.81594692     0.36640
C1212       C  0.79236199  0.37703137  0.90892123     0.36640
N1213       N  0.84055049  0.54999600  0.79777758    -0.38180
N1214       N  0.78924310  0.34841921  0.92997982    -0.38180
N1215       N  0.72516429  0.51772092  0.80274440    -0.37630
N1216       N  0.89811098  0.36320999  0.88954669    -0.37630
C1217       C  0.96732804  0.24557958  0.54239603    -0.04300
C1218       C  0.94605606  0.27298728  0.51548161    -0.01410
C1219       C  0.95201326  0.31626673  0.51899639     0.03580
C1220       C  0.98308027  0.33229559  0.54615728    -0.04300
C1221       C  0.00962952  0.30388122  0.56688357    -0.01400
C1222       C  0.00060766  0.26109511  0.56684153     0.03570
C1223       C  0.91986408  0.25654213  0.48245543     0.38220
C1224       C  0.04572989  0.31845083  0.58959851     0.38210
C1225       C  0.02445633  0.23370394  0.59370267     0.36640
C1226       C  0.92417661  0.34382271  0.49662597     0.36640
N1227       N  0.04360293  0.21203667  0.61515518    -0.38180
N1228       N  0.90162997  0.36552601  0.47882272    -0.38180
N1229       N  0.07504053  0.32838949  0.60809229    -0.37630
N1230       N  0.90021321  0.24385026  0.45480288    -0.37630
C1231       C  0.85035236  0.14394105  0.56397142    -0.04300
C1232       C  0.81929545  0.16785665  0.54285997    -0.01410
C1233       C  0.77674324  0.15816315  0.54569024     0.03580
C1234       C  0.76344030  0.12419052  0.56924758    -0.04300
C1235       C  0.79387859  0.10045116  0.59084082    -0.01400
C1236       C  0.83647562  0.11100041  0.58931636     0.03570
C1237       C  0.82894196  0.20471731  0.51981033     0.38220
C1238       C  0.78156002  0.06514291  0.61544065     0.38210
C1239       C  0.86536993  0.08944732  0.61661558     0.36640
C1240       C  0.74630192  0.18547914  0.52616311     0.36640
N1241       N  0.88814216  0.07204896  0.63850236    -0.38180
N1242       N  0.72232318  0.20734181  0.51055474    -0.38180
N1243       N  0.77180553  0.03710831  0.63521269    -0.37630
N1244       N  0.83218643  0.23582592  0.50264475    -0.37630
C1245       C  0.65521976  0.23997697  0.86222860    -0.04300
C1246       C  0.64697060  0.26876983  0.82919625    -0.01410
C1247       C  0.64420899  0.31156578  0.83738788     0.03580
C1248       C  0.66072955  0.32780306  0.87456098    -0.04300
C1249       C  0.67774430  0.30055699  0.90433082    -0.01400
C1250       C  0.67507757  0.25704403  0.89849331     0.03570
C1251       C  0.65336896  0.25812650  0.78580614     0.38220
C1252       C  0.69954197  0.31744715  0.94048665     0.38210
C1253       C  0.69974367  0.23137806  0.92618833     0.36640
C1254       C  0.62951990  0.33952020  0.80504403     0.36640
N1255       N  0.72021567  0.21169803  0.94837266    -0.38180
N1256       N  0.61791594  0.36177160  0.77932865    -0.38180
N1257       N  0.71634390  0.33070680  0.96976989    -0.37630
N1258       N  0.65873315  0.25094075  0.75097587    -0.37630
C1259       C  0.64960388  0.13031875  0.76168434    -0.04300
C1260       C  0.68306039  0.15074113  0.74323615    -0.01410
C1261       C  0.68349764  0.15600330  0.70004280     0.03580
C1262       C  0.65443137  0.13473688  0.67401717    -0.04300
C1263       C  0.62035276  0.11516539  0.69280134    -0.01400
C1264       C  0.61748881  0.11432017  0.73645855     0.03570
C1265       C  0.71628202  0.16804278  0.76903752     0.38220
C1266       C  0.58704500  0.09784016  0.66794280     0.38210
C1267       C  0.58048710  0.09965059  0.75592774     0.36640
C1268       C  0.71261392  0.18520420  0.68268756     0.36640
N1269       N  0.55112771  0.08919283  0.77278252    -0.38180
N1270       N  0.73575116  0.20844570  0.66881513    -0.38180
N1271       N  0.55955756  0.08511194  0.64830971    -0.37630
N1272       N  0.74269763  0.18182479  0.78962754    -0.37630
loop_ 
_geom_bond_atom_site_label_1 
_geom_bond_atom_site_label_2 
_geom_bond_distance 
_geom_bond_site_symmetry_2 
_ccdc_geom_bond_type 
C1            C2   1.384       .  A
C1            C6   1.395       .  A
C1         C1259   1.477       .  S
C2            C3   1.396       .  A
C2            H7   1.067       .  S
C3            C4   1.425       .  A
C3         C1245   1.537       .  S
C4            C5   1.417       .  A
C4            H8   1.077       .  S
C5            C6   1.403       .  A
C5          C584   1.472       .  S
C6            H9   1.083       .  S
C10          C11   1.412       .  A
C10          C15   1.422       .  A
C10        C1231   1.531       .  S
C11          C12   1.409       .  A
C11          H16   1.081       .  S
C12          C13   1.402       .  A
C12        C1217   1.496       .  S
C13          C14   1.397       .  A
C13          H17   1.084   1_655  S
C14          C15   1.409       .  A
C14         C542   1.480       .  S
C15          H18   1.078       .  S
C19          C20   1.390       .  A
C19          C24   1.405       .  A
C19        C1203   1.485       .  S
C20          C21   1.402       .  A
C20          H25   1.084       .  S
C21          C22   1.414       .  A
C21        C1189   1.503       .  S
C22          C23   1.411       .  A
C22          H26   1.082   1_655  S
C23          C24   1.403       .  A
C23         C570   1.477   1_655  S
C24          H27   1.083       .  S
C28          C29   1.402       .  A
C28          C33   1.416       .  A
C28        C1206   1.513       .  S
C29          C30   1.397       .  A
C29          H34   1.083       .  S
C30          C31   1.399       .  A
C30        C1248   1.480       .  S
C31          C32   1.400       .  A
C31          H35   1.083       .  S
C32          C33   1.408       .  A
C32         C514   1.471       .  S
C33          H36   1.082       .  S
C37          C38   1.399       .  A
C37          C42   1.408       .  A
C37        C1192   1.496       .  S
C38          C39   1.399       .  A
C38          H43   1.084       .  S
C39          C40   1.411       .  A
C39        C1220   1.500       .  S
C40          C41   1.410       .  A
C40          H44   1.081       .  S
C41          C42   1.408       .  A
C41         C486   1.479       .  S
C42          H45   1.084       .  S
C46          C47   1.404       .  A
C46          C51   1.412       .  A
C46        C1262   1.502       .  S
C47          C48   1.393       .  A
C47          H52   1.080       .  S
C48          C49   1.413       .  A
C48        C1234   1.511       .  S
C49          C50   1.404       .  A
C49          H53   1.075       .  S
C50          C51   1.406       .  A
C50         C471   1.481       .  S
C51          H54   1.081       .  S
C55          C56   1.406       .  A
C55          C60   1.417       .  A
C55        C1161   1.518       .  S
C56          C57   1.400       .  A
C56          H61   1.077       .  S
C57          C58   1.409       .  A
C57        C1175   1.511       .  S
C58          C59   1.406       .  A
C58          H62   1.081       .  S
C59          C60   1.411       .  A
C59         C572   1.485       .  S
C60          H63   1.080       .  S
C64          C65   1.406       .  A
C64          C69   1.411       .  A
C64        C1147   1.506       .  S
C65          C66   1.396       .  A
C65          H70   1.085       .  S
C66          C67   1.411       .  A
C66        C1136   1.505       .  S
C67          C68   1.414       .  A
C67          H71   1.083       .  S
C68          C69   1.415       .  A
C68         C543   1.485       .  S
C69          H72   1.082       .  S
C73          C74   1.393       .  A
C73          C78   1.412       .  A
C73        C1119   1.499       .  S
C74          C75   1.396       .  A
C74          H79   1.084       .  S
C75          C76   1.405       .  A
C75        C1105   1.481       .  S
C76          C77   1.407       .  A
C76          H80   1.084       .  S
C77          C78   1.404       .  A
C77         C556   1.478       .  S
C78          H81   1.077       .  S
C82          C83   1.400       .  A
C82          C87   1.416       .  A
C82        C1108   1.514       .  S
C83          C84   1.397       .  A
C83          H88   1.079       .  S
C84          C85   1.404       .  A
C84        C1164   1.492       .  S
C85          C86   1.410       .  A
C85          H89   1.082       .  S
C86          C87   1.407       .  A
C86         C516   1.479       .  S
C87          H90   1.081       .  S
C91          C92   1.395       .  A
C91          C96   1.407       .  A
C91        C1122   1.508       .  S
C92          C93   1.399       .  A
C92          H97   1.080       .  S
C93          C94   1.411       .  A
C93        C1150   1.505       .  S
C94          C95   1.413       .  A
C94          H98   1.083       .  S
C95          C96   1.408       .  A
C95         C474   1.477       .  S
C96          H99   1.078       .  S
C100        C101   1.414       .  A
C100        C105   1.412       .  A
C100       C1133   1.517       .  S
C101        C102   1.409       .  A
C101        H106   1.082       .  S
C102        C103   1.403       .  A
C102        C457   1.476       .  S
C103        C104   1.405       .  A
C103        H107   1.084       .  S
C104        C105   1.402       .  A
C104       C1178   1.503       .  S
C105        H108   1.082       .  S
C109        C110   1.396       .  A
C109        C114   1.401       .  A
C109       C1077   1.490       .  S
C110        C111   1.404       .  A
C110        H115   1.079       .  S
C111        C112   1.431       .  A
C111       C1091   1.538       .  S
C112        C113   1.416       .  A
C112        H116   1.074       .  S
C113        C114   1.405       .  A
C113        C558   1.489       .  S
C114        H117   1.083       .  S
C118        C119   1.411       .  A
C118        C123   1.434       .  A
C118       C1063   1.547       .  S
C119        C120   1.399       .  A
C119        H124   1.078       .  S
C120        C121   1.394       .  A
C120       C1049   1.487       .  S
C121        C122   1.397       .  A
C121        H125   1.084       .  S
C122        C123   1.417       .  A
C122        C541   1.484       .  S
C123        H126   1.069       .  S
C127        C128   1.401       .  A
C127        C132   1.401       .  A
C127       C1035   1.506       .  S
C128        C129   1.407       .  A
C128        H133   1.083       .  S
C129        C130   1.418       .  A
C129        C597   1.488       .  S
C130        C131   1.431       .  A
C130        H134   1.074       .  S
C131        C132   1.408       .  A
C131       C1024   1.554       .  S
C132        H135   1.063       .  S
C136        C137   1.400       .  A
C136        C141   1.399       .  A
C136       C1021   1.493       .  S
C137        C138   1.408       .  A
C137        H142   1.080       .  S
C138        C139   1.411       .  A
C138       C1080   1.512       .  S
C139        C140   1.405       .  A
C139        H143   1.082       .  S
C140        C141   1.405       .  A
C140        C513   1.467       .  S
C141        H144   1.082       .  S
C145        C146   1.406       .  A
C145        C150   1.415       .  A
C145       C1038   1.506       .  S
C146        C147   1.398       .  A
C146        H151   1.084       .  S
C147        C148   1.396       .  A
C147       C1066   1.482       .  S
C148        C149   1.400       .  A
C148        H152   1.085       .  S
C149        C150   1.413       .  A
C149        C460   1.471       .  S
C150        H153   1.083       .  S
C154        C155   1.394       .  A
C154        C159   1.394       .  A
C154       C1094   1.478       .  S
C155        C156   1.401       .  A
C155        H160   1.081       .  S
C156        C157   1.421       .  A
C156       C1052   1.512       .  S
C157        C158   1.411       .  A
C157        H161   1.082       .  S
C158        C159   1.397       .  A
C158        C502   1.471       .  S
C159        H162   1.084       .  S
C163        C164   1.400       .  A
C163        C168   1.415       .  A
C163       C1007   1.503       .  S
C164        C165   1.387       .  A
C164        H169   1.081       .  S
C165        C166   1.407       .  A
C165        C993   1.496       .  S
C166        C167   1.402       .  A
C166        H170   1.077   1_655  S
C167        C168   1.411       .  A
C167        C544   1.477       .  S
C168        H171   1.081       .  S
C172        C173   1.432       .  A
C172        C177   1.403       .  A
C172        C979   1.534       .  S
C173        C174   1.414       .  A
C173        H178   1.075       .  S
C174        C175   1.396       .  A
C174        C586   1.477       .  S
C175        C176   1.392       .  A
C175        H179   1.084       .  S
C176        C177   1.394       .  A
C176        C965   1.477       .  S
C177        H180   1.079       .  S
C181        C182   1.402       .  A
C181        C186   1.411       .  A
C181        C951   1.503       .  S
C182        C183   1.405       .  A
C182        H187   1.084       .  S
C183        C184   1.402       .  A
C183        C937   1.488       .  S
C184        C185   1.402       .  A
C184        H188   1.083       .  S
C185        C186   1.405       .  A
C185        C599   1.471   1_655  S
C186        H189   1.080   1_655  S
C190        C191   1.412       .  A
C190        C195   1.425       .  A
C190        C954   1.530       .  S
C191        C192   1.409       .  A
C191        H196   1.081       .  S
C192        C193   1.403       .  A
C192        C996   1.500       .  S
C193        C194   1.396       .  A
C193        H197   1.082       .  S
C194        C195   1.411       .  A
C194        C488   1.484       .  S
C195        H198   1.081       .  S
C199        C200   1.408       .  A
C199        C204   1.431       .  A
C199        C940   1.545       .  S
C200        C201   1.390       .  A
C200        H205   1.067       .  S
C201        C202   1.391       .  A
C201        C982   1.482       .  S
C202        C203   1.398       .  A
C202        H206   1.084       .  S
C203        C204   1.418       .  A
C203        C515   1.476       .  S
C204        H207   1.077       .  S
C208        C209   1.390       .  A
C208        C213   1.395       .  A
C208       C1010   1.472       .  S
C209        C210   1.397       .  A
C209        H214   1.084       .  S
C210        C211   1.415       .  A
C210        C968   1.502       .  S
C211        C212   1.409       .  A
C211        H215   1.082       .  S
C212        C213   1.400       .  A
C212        C500   1.464       .  S
C213        H216   1.084       .  S
C217        C218   1.403       .  A
C217        C222   1.430       .  A
C217        C926   1.533       .  S
C218        C219   1.399       .  A
C218        H223   1.070       .  S
C219        C220   1.395       .  A
C219        C909   1.487       .  S
C220        C221   1.393       .  A
C220        H224   1.082       .  S
C221        C222   1.409       .  A
C221        C600   1.473       .  S
C222        H225   1.078       .  S
C226        C227   1.397       .  A
C226        C231   1.401       .  A
C226        C895   1.491       .  S
C227        C228   1.407       .  A
C227        H232   1.080       .  S
C228        C229   1.420       .  A
C228        C881   1.527       .  S
C229        C230   1.411       .  A
C229        H233   1.080       .  S
C230        C231   1.405       .  A
C230        C527   1.478       .  S
C231        H234   1.084       .  S
C235        C236   1.397       .  A
C235        C240   1.409       .  A
C235        C867   1.504       .  S
C236        C237   1.402       .  A
C236        H241   1.082       .  S
C237        C238   1.412       .  A
C237        C856   1.502       .  S
C238        C239   1.410       .  A
C238        H242   1.081       .  S
C239        C240   1.405       .  A
C239        C555   1.479       .  S
C240        H243   1.084       .  S
C244        C245   1.397       .  A
C244        C249   1.411       .  A
C244        C912   1.493       .  S
C245        C246   1.401       .  A
C245        H250   1.085       .  S
C246        C247   1.410       .  A
C246        C870   1.500       .  S
C247        C248   1.406       .  A
C247        H251   1.077       .  S
C248        C249   1.405       .  A
C248        C446   1.479       .  S
C249        H252   1.083       .  S
C253        C254   1.401       .  A
C253        C258   1.410       .  A
C253        C853   1.501       .  S
C254        C255   1.398       .  A
C254        H259   1.085       .  S
C255        C256   1.399       .  A
C255        C884   1.482       .  S
C256        C257   1.405       .  A
C256        H260   1.084       .  S
C257        C258   1.409       .  A
C257        C499   1.468       .  S
C258        H261   1.084       .  S
C262        C263   1.395       .  A
C262        C267   1.400       .  A
C262        C923   1.483       .  S
C263        C264   1.400       .  A
C263        H268   1.084       .  S
C264        C265   1.415       .  A
C264        C898   1.510       .  S
C265        C266   1.412       .  A
C265        H269   1.082       .  S
C266        C267   1.408       .  A
C266        C458   1.475       .  S
C267        H270   1.084       .  S
C271        C272   1.389       .  A
C271        C276   1.405       .  A
C271        C839   1.488       .  S
C272        C273   1.400       .  A
C272        H277   1.082       .  S
C273        C274   1.417       .  A
C273        C828   1.509       .  S
C274        C275   1.409       .  A
C274        H278   1.079       .  S
C275        C276   1.407       .  A
C275        C583   1.480       .  S
C276        H279   1.079       .  S
C280        C281   1.397       .  A
C280        C285   1.401       .  A
C280        C811   1.487       .  S
C281        C282   1.397       .  A
C281        H286   1.085       .  S
C282        C283   1.408       .  A
C282        C797   1.495       .  S
C283        C284   1.413       .  A
C283        H287   1.083   1_565  S
C284        C285   1.407       .  A
C284        C529   1.470   1_655  S
C285        H288   1.084   1_655  S
C289        C290   1.407       .  A
C289        C294   1.402       .  A
C289        C783   1.508       .  S
C290        C291   1.407       .  A
C290        H295   1.072       .  S
C291        C292   1.424       .  A
C291        C769   1.539       .  S
C292        C293   1.413       .  A
C292        H296   1.079   1_655  S
C293        C294   1.405       .  A
C293        C598   1.484   1_655  S
C294        H297   1.083   1_554  S
C298        C299   1.402       .  A
C298        C303   1.406       .  A
C298        C786   1.509       .  S
C299        C300   1.407       .  A
C299        H304   1.079       .  S
C300        C301   1.417       .  A
C300        C842   1.521       .  S
C301        C302   1.414       .  A
C301        H305   1.082       .  S
C302        C303   1.409       .  A
C302        C443   1.484       .  S
C303        H306   1.084       .  S
C307        C308   1.387       .  A
C307        C312   1.409       .  A
C307        C772   1.497       .  S
C308        C309   1.401       .  A
C308        H313   1.084       .  S
C309        C310   1.414       .  A
C309        C814   1.505       .  S
C310        C311   1.414       .  A
C310        H314   1.081       .  S
C311        C312   1.416       .  A
C311        C485   1.487       .  S
C312        H315   1.082       .  S
C316        C317   1.400       .  A
C316        C321   1.421       .  A
C316        C800   1.517       .  S
C317        C318   1.395       .  A
C317        H322   1.079       .  S
C318        C319   1.391       .  A
C318        C825   1.476       .  S
C319        C320   1.401       .  A
C319        H323   1.084       .  S
C320        C321   1.418       .  A
C320        C501   1.470       .  S
C321        H324   1.082       .  S
C325        C326   1.428       .  A
C325        C330   1.400       .  A
C325        C755   1.526       .  S
C326        C327   1.414       .  A
C326        H331   1.080       .  S
C327        C328   1.405       .  A
C327        C571   1.486       .  S
C328        C329   1.400       .  A
C328        H332   1.084   1_655  S
C329        C330   1.394       .  A
C329        C741   1.489       .  S
C330        H333   1.079       .  S
C334        C335   1.388       .  A
C334        C339   1.397       .  A
C334        C727   1.479       .  S
C335        C336   1.398       .  A
C335        H340   1.084       .  S
C336        C337   1.414       .  A
C336        C713   1.503       .  S
C337        C338   1.413       .  A
C337        H341   1.083   1_655  S
C338        C339   1.406       .  A
C338        C528   1.471   1_655  S
C339        H342   1.084       .  S
C343        C344   1.401       .  A
C343        C348   1.408       .  A
C343        C688   1.511       .  S
C344        C345   1.405       .  A
C344        H349   1.075       .  S
C345        C346   1.411       .  A
C345        C699   1.509       .  S
C346        C347   1.408       .  A
C346        H350   1.082       .  S
C347        C348   1.402       .  A
C347        C585   1.476       .  S
C348        H351   1.080       .  S
C352        C353   1.415       .  A
C352        C357   1.397       .  A
C352        C702   1.501       .  S
C353        C354   1.415       .  A
C353        H358   1.083       .  S
C354        C355   1.408       .  A
C354        C445   1.479       .  S
C355        C356   1.401       .  A
C355        H359   1.083       .  S
C356        C357   1.391       .  A
C356        C758   1.483       .  S
C357        H360   1.085       .  S
C361        C362   1.393       .  A
C361        C366   1.409       .  A
C361        C685   1.502       .  S
C362        C363   1.401       .  A
C362        H367   1.078       .  S
C363        C364   1.420       .  A
C363        C730   1.516       .  S
C364        C365   1.414       .  A
C364        H368   1.080       .  S
C365        C366   1.407       .  A
C365        C473   1.486       .  S
C366        H369   1.084       .  S
C370        C371   1.403       .  A
C370        C375   1.427       .  A
C370        C744   1.534       .  S
C371        C372   1.398       .  A
C371        H376   1.074       .  S
C372        C373   1.395       .  A
C372        C716   1.486       .  S
C373        C374   1.402       .  A
C373        H377   1.083       .  S
C374        C375   1.415       .  A
C374        C487   1.478       .  S
C375        H378   1.077       .  S
C379        C380   1.400       .  A
C379        C384   1.408       .  A
C379        C674   1.503       .  S
C380        C381   1.400       .  A
C380        H385   1.080       .  S
C381        C382   1.407       .  A
C381        C657   1.498       .  S
C382        C383   1.408       .  A
C382        H386   1.083       .  S
C383        C384   1.404       .  A
C383        C569   1.472       .  S
C384        H387   1.081       .  S
C388        C389   1.391       .  A
C388        C393   1.409       .  A
C388        C632   1.494       .  S
C389        C390   1.396       .  A
C389        H394   1.084       .  S
C390        C391   1.407       .  A
C390        C643   1.492       .  S
C391        C392   1.407       .  A
C391        H395   1.082       .  S
C392        C393   1.411       .  A
C392        C557   1.474       .  S
C393        H396   1.084       .  S
C397        C398   1.400       .  A
C397        C402   1.406       .  A
C397        C604   1.493       .  S
C398        C399   1.405       .  A
C398        H403   1.084       .  S
C399        C400   1.408       .  A
C399        C615   1.499       .  S
C400        C401   1.401       .  A
C400        H404   1.084       .  S
C401        C402   1.400       .  A
C401        C530   1.469       .  S
C402        H405   1.079       .  S
C406        C407   1.398       .  A
C406        C411   1.401       .  A
C406        C646   1.485       .  S
C407        C408   1.400       .  A
C407        H412   1.084       .  S
C408        C409   1.413       .  A
C408        C472   1.477       .  S
C409        C410   1.422       .  A
C409        H413   1.082       .  S
C410        C411   1.404       .  A
C410        C601   1.521       .  S
C411        H414   1.081       .  S
C415        C416   1.399       .  A
C415        C420   1.401       .  A
C415        C618   1.493       .  S
C416        C417   1.403       .  A
C416        H421   1.081       .  S
C417        C418   1.414       .  A
C417        C660   1.505       .  S
C418        C419   1.407       .  A
C418        H422   1.083       .  S
C419        C420   1.398       .  A
C419        C459   1.470       .  S
C420        H423   1.080       .  S
C424        C425   1.419       .  A
C424        C429   1.398       .  A
C424        C629   1.511       .  S
C425        C426   1.413       .  A
C425        H430   1.081       .  S
C426        C427   1.406       .  A
C426        C444   1.484       .  S
C427        C428   1.408       .  A
C427        H431   1.084       .  S
C428        C429   1.393       .  A
C428        C671   1.497       .  S
C429        H432   1.081       .  S
O433        V441   1.915       .  S
O433        C443   1.267       .  A
O434        V441   1.916       .  S
O434        C444   1.267       .  A
O435        V441   1.911       .  S
O435        C445   1.266       .  A
O436        V441   1.909       .  S
O436        C446   1.266       .  A
O437        V442   1.910       .  S
O437        C446   1.266       .  A
O438        V442   1.910       .  S
O438        C445   1.266       .  A
O439        V442   1.911       .  S
O439        C444   1.266       .  A
O440        V442   1.910       .  S
O440        C443   1.266       .  A
V441        V442   2.084       .  T
O447        V455   1.904       .  S
O447        C457   1.265       .  A
O448        V455   1.906       .  S
O448        C458   1.266       .  A
O449        V455   1.902       .  S
O449        C459   1.264       .  A
O450        V455   1.902       .  S
O450        C460   1.264       .  A
O451        V456   1.909       .  S
O451        C460   1.266       .  A
O452        V456   1.905       .  S
O452        C459   1.264       .  A
O453        V456   1.909       .  S
O453        C458   1.265       .  A
O454        V456   1.910       .  S
O454        C457   1.266       .  A
V455        V456   2.087       .  T
O461        V469   1.910       .  S
O461        C471   1.266       .  A
O462        V469   1.910       .  S
O462        C472   1.264       .  A
O463        V469   1.914       .  S
O463        C473   1.267       .  A
O464        V469   1.910       .  S
O464        C474   1.266       .  A
O465        V470   1.909       .  S
O465        C474   1.265       .  A
O466        V470   1.916       .  S
O466        C473   1.266       .  A
O467        V470   1.908       .  S
O467        C472   1.267       .  A
O468        V470   1.912       .  S
O468        C471   1.266       .  A
V469        V470   2.085       .  T
O475        V483   1.912       .  S
O475        C485   1.267       .  A
O476        V483   1.911   1_455  S
O476        C486   1.266   1_455  A
O477        V483   1.905       .  S
O477        C487   1.265       .  A
O478        V483   1.917   1_455  S
O478        C488   1.266   1_455  A
O479        V484   1.910       .  S
O479        C488   1.267       .  A
O480        V484   1.914       .  S
O480        C487   1.266       .  A
O481        V484   1.909       .  S
O481        C486   1.266       .  A
O482        V484   1.918       .  S
O482        C485   1.267       .  A
V483        V484   2.087       .  T
O489        V497   1.906       .  S
O489        C499   1.265       .  A
O490        V497   1.904       .  S
O490        C500   1.266       .  A
O491        V497   1.902       .  S
O491        C501   1.264       .  A
O492        V497   1.906       .  S
O492        C502   1.263       .  A
O493        V498   1.903       .  S
O493        C502   1.266       .  A
O494        V498   1.908       .  S
O494        C501   1.265       .  A
O495        V498   1.897       .  S
O495        C500   1.261       .  A
O496        V498   1.898       .  S
O496        C499   1.262       .  A
V497        V498   2.090       .  T
O503        V511   1.899       .  S
O503        C513   1.263       .  A
O504        V511   1.906       .  S
O504        C514   1.263       .  A
O505        V511   1.914       .  S
O505        C515   1.266       .  A
O506        V511   1.910       .  S
O506        C516   1.267       .  A
O507        V512   1.909       .  S
O507        C516   1.264       .  A
O508        V512   1.902       .  S
O508        C515   1.264       .  A
O509        V512   1.902       .  S
O509        C514   1.265       .  A
O510        V512   1.905       .  S
O510        C513   1.264       .  A
V511        V512   2.089       .  T
O517        V525   1.911   1_565  S
O517        C527   1.268       .  A
O518        V525   1.909       .  S
O518        C528   1.266       .  A
O519        V525   1.895   1_565  S
O519        C529   1.262       .  A
O520        V525   1.899       .  S
O520        C530   1.262       .  A
O521        V526   1.907       .  S
O521        C530   1.266       .  A
O522        V526   1.913       .  S
O522        C529   1.267   1_545  A
O523        V526   1.901       .  S
O523        C528   1.262       .  A
O524        V526   1.907   1_565  S
O524        C527   1.263       .  A
V525        V526   2.088       .  T
O531        V539   1.910   1_565  S
O531        C541   1.263       .  A
O532        V539   1.906       .  S
O532        C542   1.263   1_455  A
O533        V539   1.923       .  S
O533        C543   1.270       .  A
O534        V539   1.917   1_565  S
O534        C544   1.269   1_455  A
O535        V540   1.899   1_565  S
O535        C544   1.261   1_455  A
O536        V540   1.905       .  S
O536        C543   1.263       .  A
O537        V540   1.914       .  S
O537        C542   1.268   1_455  A
O538        V540   1.917   1_565  S
O538        C541   1.270       .  A
V539        V540   2.087       .  T
O545        V553   1.900   1_564  S
O545        C555   1.262       .  A
O546        V553   1.902       .  S
O546        C556   1.262       .  A
O547        V553   1.919   1_554  S
O547        C557   1.268       .  A
O548        V553   1.921   1_565  S
O548        C558   1.270       .  A
O549        V554   1.913   1_565  S
O549        C558   1.264       .  A
O550        V554   1.894       .  S
O550        C557   1.261   1_556  A
O551        V554   1.915       .  S
O551        C556   1.268       .  A
O552        V554   1.920   1_564  S
O552        C555   1.269       .  A
V553        V554   2.087       .  T
O559        V567   1.912   1_554  S
O559        C569   1.266       .  A
O560        V567   1.911       .  S
O560        C570   1.267       .  A
O561        V567   1.919   1_554  S
O561        C571   1.266   1_455  A
O562        V567   1.914       .  S
O562        C572   1.267       .  A
O563        V568   1.914       .  S
O563        C572   1.266       .  A
O564        V568   1.911   1_554  S
O564        C571   1.268   1_455  A
O565        V568   1.906       .  S
O565        C570   1.264       .  A
O566        V568   1.897   1_554  S
O566        C569   1.263       .  A
V567        V568   2.085       .  T
O573        V581   1.917   1_564  S
O573        C583   1.266       .  A
O574        V581   1.908       .  S
O574        C584   1.265       .  A
O575        V581   1.910   1_554  S
O575        C585   1.267       .  A
O576        V581   1.916   1_565  S
O576        C586   1.266       .  A
O577        V582   1.902   1_565  S
O577        C586   1.265       .  A
O578        V582   1.904   1_554  S
O578        C585   1.264       .  A
O579        V582   1.904       .  S
O579        C584   1.264       .  A
O580        V582   1.904   1_564  S
O580        C583   1.265       .  A
V581        V582   2.087       .  T
O587        V595   1.921       .  S
O587        C597   1.270       .  A
O588        V595   1.918   1_554  S
O588        C598   1.269       .  A
O589        V595   1.900       .  S
O589        C599   1.262       .  A
O590        V595   1.905   1_554  S
O590        C600   1.262       .  A
O591        V596   1.908   1_554  S
O591        C600   1.267       .  A
O592        V596   1.910       .  S
O592        C599   1.267       .  A
O593        V596   1.908   1_554  S
O593        C598   1.264       .  A
O594        V596   1.911       .  S
O594        C597   1.264       .  A
V595        V596   2.085       .  T
C601        C602   1.423       .  A
C601        C606   1.433       .  A
C602        C603   1.414       .  A
C602        C607   1.451       .  S
C603        C604   1.411       .  A
C603        C610   1.449       .  S
C604        C605   1.404       .  A
C605        C606   1.412       .  A
C605        C608   1.456       .  S
C606        C609   1.446       .  S
C607        N614   1.158       .  T
C608        N613   1.157       .  T
C609        N611   1.156       .  T
C610        N612   1.156       .  T
C615        C616   1.417       .  A
C615        C620   1.419       .  A
C616        C617   1.407       .  A
C616        C621   1.450       .  S
C617        C618   1.415       .  A
C617        C624   1.454       .  S
C618        C619   1.414       .  A
C619        C620   1.409       .  A
C619        C622   1.449       .  S
C620        C623   1.452       .  S
C621        N628   1.156       .  T
C622        N627   1.156       .  T
C623        N625   1.158       .  T
C624        N626   1.157       .  T
C629        C630   1.414       .  A
C629        C634   1.423       .  A
C630        C631   1.412       .  A
C630        C635   1.440       .  S
C631        C632   1.412       .  A
C631        C638   1.447       .  S
C632        C633   1.412       .  A
C633        C634   1.410       .  A
C633        C636   1.452       .  S
C634        C637   1.453       .  S
C635        N642   1.154       .  T
C636        N641   1.157       .  T
C637        N639   1.158       .  T
C638        N640   1.155       .  T
C643        C644   1.422       .  A
C643        C648   1.411       .  A
C644        C645   1.408       .  A
C644        C649   1.451       .  S
C645        C646   1.407       .  A
C645        C652   1.450       .  S
C646        C647   1.413       .  A
C647        C648   1.407       .  A
C647        C650   1.447       .  S
C648        C651   1.451       .  S
C649        N656   1.157       .  T
C650        N655   1.156       .  T
C651        N653   1.157       .  T
C652        N654   1.157       .  T
C657        C658   1.416       .  A
C657        C662   1.415       .  A
C658        C659   1.414       .  A
C658        C663   1.450       .  S
C659        C660   1.416       .  A
C659        C666   1.446       .  S
C660        C661   1.418       .  A
C661        C662   1.408       .  A
C661        C664   1.453       .  S
C662        C665   1.453       .  S
C663        N670   1.157       .  T
C664        N669   1.157       .  T
C665        N667   1.157       .  T
C666        N668   1.156       .  T
C671        C672   1.413       .  A
C671        C676   1.418       .  A
C672        C673   1.409       .  A
C672        C677   1.454       .  S
C673        C674   1.422       .  A
C673        C680   1.450       .  S
C674        C675   1.417       .  A
C675        C676   1.412       .  A
C675        C678   1.453   1_554  S
C676        C679   1.450   1_554  S
C677        N684   1.157       .  T
C678        N683   1.157       .  T
C679        N681   1.156       .  T
C680        N682   1.157       .  T
C685        C686   1.414       .  A
C685        C690   1.418       .  A
C686        C687   1.413       .  A
C686        C691   1.454       .  S
C687        C688   1.425       .  A
C687        C694   1.448       .  S
C688        C689   1.419       .  A
C689        C690   1.411       .  A
C689        C692   1.455       .  S
C690        C693   1.449       .  S
C691        N698   1.157       .  T
C692        N697   1.158       .  T
C693        N695   1.155       .  T
C694        N696   1.157       .  T
C699        C700   1.418       .  A
C699        C704   1.415       .  A
C700        C701   1.417       .  A
C700        C705   1.444       .  S
C701        C702   1.411       .  A
C701        C708   1.445   1_554  S
C702        C703   1.417       .  A
C703        C704   1.407       .  A
C703        C706   1.452       .  S
C704        C707   1.453       .  S
C705        N712   1.156   1_554  T
C706        N711   1.157       .  T
C707        N709   1.157       .  T
C708        N710   1.156       .  T
C713        C714   1.420       .  A
C713        C718   1.423       .  A
C714        C715   1.416       .  A
C714        C719   1.446   1_655  S
C715        C716   1.402       .  A
C715        C722   1.437   1_655  S
C716        C717   1.400       .  A
C717        C718   1.400       .  A
C717        C720   1.453       .  S
C718        C721   1.449       .  S
C719        N726   1.156       .  T
C720        N725   1.157       .  T
C721        N723   1.156       .  T
C722        N724   1.153       .  T
C727        C728   1.403       .  A
C727        C732   1.400       .  A
C728        C729   1.404       .  A
C728        C733   1.451       .  S
C729        C730   1.427       .  A
C729        C736   1.453       .  S
C730        C731   1.420       .  A
C731        C732   1.411       .  A
C731        C734   1.433       .  S
C732        C735   1.444       .  S
C733        N740   1.157       .  T
C734        N739   1.152       .  T
C735        N737   1.154       .  T
C736        N738   1.158       .  T
C741        C742   1.397       .  A
C741        C746   1.408       .  A
C742        C743   1.410       .  A
C742        C747   1.456       .  S
C743        C744   1.440       .  A
C743        C750   1.448       .  S
C744        C745   1.428       .  A
C745        C746   1.417       .  A
C745        C748   1.446       .  S
C746        C749   1.448       .  S
C747        N754   1.157       .  T
C748        N753   1.157       .  T
C749        N751   1.155       .  T
C750        N752   1.156       .  T
C755        C756   1.441       .  A
C755        C760   1.422       .  A
C756        C757   1.412       .  A
C756        C761   1.454       .  S
C757        C758   1.401       .  A
C757        C764   1.454       .  S
C758        C759   1.399       .  A
C759        C760   1.409       .  A
C759        C762   1.441   1_554  S
C760        C763   1.444   1_554  S
C761        N768   1.158       .  T
C762        N767   1.153       .  T
C763        N765   1.155       .  T
C764        N766   1.157       .  T
C769        C770   1.435       .  A
C769        C774   1.423       .  A
C770        C771   1.419       .  A
C770        C775   1.450       .  S
C771        C772   1.409       .  A
C771        C778   1.451       .  S
C772        C773   1.404       .  A
C773        C774   1.410       .  A
C773        C776   1.447   1_655  S
C774        C777   1.443   1_655  S
C775        N782   1.158       .  T
C776        N781   1.158       .  T
C777        N779   1.158       .  T
C778        N780   1.157       .  T
C783        C784   1.413       .  A
C783        C788   1.413       .  A
C784        C785   1.412       .  A
C784        C789   1.443       .  S
C785        C786   1.417       .  A
C785        C792   1.449       .  S
C786        C787   1.421       .  A
C787        C788   1.416       .  A
C787        C790   1.448   1_554  S
C788        C791   1.450   1_554  S
C789        N796   1.154       .  T
C790        N795   1.156       .  T
C791        N793   1.157       .  T
C792        N794   1.157       .  T
C797        C798   1.402       .  A
C797        C802   1.408       .  A
C798        C799   1.403       .  A
C798        C803   1.449       .  S
C799        C800   1.423       .  A
C799        C806   1.449       .  S
C800        C801   1.420       .  A
C801        C802   1.421       .  A
C801        C804   1.440       .  S
C802        C805   1.443       .  S
C803        N810   1.156       .  T
C804        N809   1.154   1_565  T
C805        N807   1.155   1_565  T
C806        N808   1.156       .  T
C811        C812   1.409       .  A
C811        C816   1.402       .  A
C812        C813   1.419       .  A
C812        C817   1.445       .  S
C813        C814   1.419       .  A
C813        C820   1.442       .  S
C814        C815   1.418       .  A
C815        C816   1.395       .  A
C815        C818   1.453       .  S
C816        C819   1.448       .  S
C817        N824   1.155   1_655  T
C818        N823   1.157       .  T
C819        N821   1.156       .  T
C820        N822   1.155   1_655  T
C825        C826   1.402       .  A
C825        C830   1.398       .  A
C826        C827   1.415       .  A
C826        C831   1.444   1_565  S
C827        C828   1.423       .  A
C827        C834   1.444   1_565  S
C828        C829   1.428       .  A
C829        C830   1.398       .  A
C829        C832   1.451       .  S
C830        C833   1.454       .  S
C831        N838   1.155       .  T
C832        N837   1.157       .  T
C833        N835   1.157       .  T
C834        N836   1.156       .  T
C839        C840   1.403       .  A
C839        C844   1.406       .  A
C840        C841   1.414       .  A
C840        C845   1.446       .  S
C841        C842   1.424       .  A
C841        C848   1.440       .  S
C842        C843   1.424       .  A
C843        C844   1.410       .  A
C843        C846   1.451       .  S
C844        C847   1.451       .  S
C845        N852   1.155       .  T
C846        N851   1.157       .  T
C847        N849   1.157       .  T
C848        N850   1.154       .  T
C853        C854   1.414       .  A
C853        C858   1.416       .  A
C854        C855   1.416       .  A
C854        C859   1.448   1_565  S
C855        C856   1.415       .  A
C855        C862   1.444   1_565  S
C856        C857   1.414       .  A
C857        C858   1.407       .  A
C857        C860   1.454       .  S
C858        C861   1.450       .  S
C859        N866   1.156       .  T
C860        N865   1.157       .  T
C861        N863   1.156       .  T
C862        N864   1.155       .  T
C867        C868   1.424       .  A
C867        C872   1.414       .  A
C868        C869   1.416       .  A
C868        C873   1.451       .  S
C869        C870   1.412       .  A
C869        C876   1.450       .  S
C870        C871   1.413       .  A
C871        C872   1.405       .  A
C871        C874   1.442   1_554  S
C872        C875   1.454       .  S
C873        N880   1.157       .  T
C874        N879   1.153       .  T
C875        N877   1.158   1_554  T
C876        N878   1.157       .  T
C881        C882   1.433       .  A
C881        C886   1.430       .  A
C882        C883   1.404       .  A
C882        C887   1.449       .  S
C883        C884   1.398       .  A
C883        C890   1.454       .  S
C884        C885   1.401       .  A
C885        C886   1.417       .  A
C885        C888   1.447   1_565  S
C886        C889   1.442   1_565  S
C887        N894   1.157       .  T
C888        N893   1.156       .  T
C889        N891   1.155       .  T
C890        N892   1.157       .  T
C895        C896   1.406       .  A
C895        C900   1.405       .  A
C896        C897   1.404       .  A
C896        C901   1.453       .  S
C897        C898   1.423       .  A
C897        C904   1.452       .  S
C898        C899   1.420       .  A
C899        C900   1.418       .  A
C899        C902   1.443       .  S
C900        C903   1.440       .  S
C901        N908   1.158       .  T
C902        N907   1.155       .  T
C903        N905   1.154       .  T
C904        N906   1.157       .  T
C909        C910   1.415       .  A
C909        C914   1.402       .  A
C910        C911   1.405       .  A
C910        C915   1.445       .  S
C911        C912   1.410       .  A
C911        C918   1.451       .  S
C912        C913   1.421       .  A
C913        C914   1.407       .  A
C913        C916   1.440   1_554  S
C914        C917   1.453   1_554  S
C915        N922   1.155       .  T
C916        N921   1.153       .  T
C917        N919   1.157       .  T
C918        N920   1.157       .  T
C923        C924   1.390       .  A
C923        C928   1.402       .  A
C924        C925   1.403       .  A
C924        C929   1.436       .  S
C925        C926   1.413       .  A
C925        C932   1.447       .  S
C926        C927   1.444       .  A
C927        C928   1.418       .  A
C927        C930   1.447       .  S
C928        C931   1.454       .  S
C929        N936   1.155       .  T
C930        N935   1.158       .  T
C931        N933   1.157       .  T
C932        N934   1.158       .  T
C937        C938   1.401       .  A
C937        C942   1.408       .  A
C938        C939   1.406       .  A
C938        C943   1.456       .  S
C939        C940   1.440       .  A
C939        C946   1.452       .  S
C940        C941   1.431       .  A
C941        C942   1.420       .  A
C941        C944   1.449       .  S
C942        C945   1.449       .  S
C943        N950   1.157       .  T
C944        N949   1.158       .  T
C945        N947   1.157       .  T
C946        N948   1.158       .  T
C951        C952   1.405       .  A
C951        C956   1.411       .  A
C952        C953   1.417       .  A
C952        C957   1.457       .  S
C953        C954   1.433       .  A
C953        C960   1.443       .  S
C954        C955   1.424       .  A
C955        C956   1.417       .  A
C955        C958   1.452       .  S
C956        C959   1.442       .  S
C957        N964   1.157   1_655  T
C958        N963   1.158       .  T
C959        N961   1.153       .  T
C960        N962   1.155   1_655  T
C965        C966   1.402       .  A
C965        C970   1.396       .  A
C966        C967   1.401       .  A
C966        C971   1.455       .  S
C967        C968   1.423       .  A
C967        C974   1.449       .  S
C968        C969   1.419       .  A
C969        C970   1.411       .  A
C969        C972   1.440       .  S
C970        C973   1.436       .  S
C971        N978   1.157       .  T
C972        N977   1.154   1_565  T
C973        N975   1.152   1_565  T
C974        N976   1.156       .  T
C979        C980   1.426       .  A
C979        C984   1.442       .  A
C980        C981   1.411       .  A
C980        C985   1.437       .  S
C981        C982   1.401       .  A
C981        C988   1.448       .  S
C982        C983   1.397       .  A
C983        C984   1.411       .  A
C983        C986   1.455       .  S
C984        C987   1.449       .  S
C985        N992   1.154       .  T
C986        N991   1.157       .  T
C987        N989   1.157       .  T
C988        N990   1.154       .  T
C993        C994   1.419       .  A
C993        C998   1.413       .  A
C994        C995   1.415       .  A
C994        C999   1.452       .  S
C995        C996   1.417       .  A
C995       C1002   1.451       .  S
C996        C997   1.414       .  A
C997        C998   1.404       .  A
C997       C1000   1.447   1_655  S
C998       C1001   1.454       .  S
C999       N1006   1.157       .  T
C1000      N1005   1.157       .  T
C1001      N1003   1.157   1_655  T
C1002      N1004   1.157       .  T
C1007      C1008   1.417       .  A
C1007      C1012   1.422       .  A
C1008      C1009   1.410       .  A
C1008      C1013   1.437   1_565  S
C1009      C1010   1.400       .  A
C1009      C1016   1.442   1_565  S
C1010      C1011   1.400       .  A
C1011      C1012   1.397       .  A
C1011      C1014   1.450       .  S
C1012      C1015   1.454       .  S
C1013      N1020   1.153       .  T
C1014      N1019   1.157       .  T
C1015      N1017   1.157       .  T
C1016      N1018   1.154       .  T
C1021      C1022   1.399       .  A
C1021      C1026   1.395       .  A
C1022      C1023   1.422       .  A
C1022      C1027   1.445       .  S
C1023      C1024   1.438       .  A
C1023      C1030   1.445       .  S
C1024      C1025   1.451       .  A
C1025      C1026   1.413       .  A
C1025      C1028   1.448       .  S
C1026      C1029   1.459       .  S
C1027      N1034   1.155       .  T
C1028      N1033   1.158       .  T
C1029      N1031   1.157       .  T
C1030      N1032   1.157       .  T
C1035      C1036   1.409       .  A
C1035      C1040   1.411       .  A
C1036      C1037   1.421       .  A
C1036      C1041   1.439       .  S
C1037      C1038   1.417       .  A
C1037      C1044   1.447       .  S
C1038      C1039   1.417       .  A
C1039      C1040   1.408       .  A
C1039      C1042   1.452       .  S
C1040      C1043   1.452       .  S
C1041      N1048   1.154       .  T
C1042      N1047   1.157       .  T
C1043      N1045   1.157       .  T
C1044      N1046   1.156       .  T
C1049      C1050   1.398       .  A
C1049      C1054   1.408       .  A
C1050      C1051   1.412       .  A
C1050      C1055   1.454       .  S
C1051      C1052   1.435       .  A
C1051      C1058   1.446       .  S
C1052      C1053   1.420       .  A
C1053      C1054   1.409       .  A
C1053      C1056   1.453       .  S
C1054      C1057   1.444       .  S
C1055      N1062   1.157       .  T
C1056      N1061   1.158       .  T
C1057      N1059   1.154       .  T
C1058      N1060   1.157       .  T
C1063      C1064   1.432       .  A
C1063      C1068   1.439       .  A
C1064      C1065   1.413       .  A
C1064      C1069   1.430       .  S
C1065      C1066   1.393       .  A
C1065      C1072   1.449       .  S
C1066      C1067   1.397       .  A
C1067      C1068   1.413       .  A
C1067      C1070   1.452       .  S
C1068      C1071   1.449       .  S
C1069      N1076   1.152       .  T
C1070      N1075   1.157       .  T
C1071      N1073   1.157       .  T
C1072      N1074   1.156       .  T
C1077      C1078   1.407       .  A
C1077      C1082   1.399       .  A
C1078      C1079   1.408       .  A
C1078      C1083   1.453       .  S
C1079      C1080   1.423       .  A
C1079      C1086   1.452       .  S
C1080      C1081   1.426       .  A
C1081      C1082   1.415       .  A
C1081      C1084   1.446       .  S
C1082      C1085   1.438       .  S
C1083      N1090   1.157       .  T
C1084      N1089   1.156       .  T
C1085      N1087   1.153       .  T
C1086      N1088   1.157       .  T
C1091      C1092   1.445       .  A
C1091      C1096   1.429       .  A
C1092      C1093   1.411       .  A
C1092      C1097   1.447       .  S
C1093      C1094   1.393       .  A
C1093      C1100   1.456       .  S
C1094      C1095   1.399       .  A
C1095      C1096   1.411       .  A
C1095      C1098   1.451       .  S
C1096      C1099   1.435       .  S
C1097      N1104   1.156       .  T
C1098      N1103   1.156   1_565  T
C1099      N1101   1.154   1_565  T
C1100      N1102   1.157       .  T
C1105      C1106   1.404       .  A
C1105      C1110   1.406       .  A
C1106      C1107   1.406       .  A
C1106      C1111   1.456       .  S
C1107      C1108   1.428       .  A
C1107      C1114   1.449       .  S
C1108      C1109   1.422       .  A
C1109      C1110   1.412       .  A
C1109      C1112   1.444       .  S
C1110      C1113   1.447       .  S
C1111      N1118   1.157       .  T
C1112      N1117   1.155       .  T
C1113      N1115   1.156       .  T
C1114      N1116   1.156       .  T
C1119      C1120   1.423       .  A
C1119      C1124   1.409       .  A
C1120      C1121   1.416       .  A
C1120      C1125   1.450       .  S
C1121      C1122   1.413       .  A
C1121      C1128   1.451       .  S
C1122      C1123   1.420       .  A
C1123      C1124   1.404       .  A
C1123      C1126   1.442       .  S
C1124      C1127   1.455       .  S
C1125      N1132   1.157       .  T
C1126      N1131   1.152       .  T
C1127      N1129   1.158       .  T
C1128      N1130   1.157       .  T
C1133      C1134   1.420       .  A
C1133      C1138   1.414       .  A
C1134      C1135   1.418       .  A
C1134      C1139   1.437       .  S
C1135      C1136   1.408       .  A
C1135      C1142   1.445       .  S
C1136      C1137   1.414       .  A
C1137      C1138   1.409       .  A
C1137      C1140   1.444       .  S
C1138      C1141   1.452       .  S
C1139      N1146   1.153       .  T
C1140      N1145   1.155       .  T
C1141      N1143   1.157       .  T
C1142      N1144   1.155       .  T
C1147      C1148   1.401       .  A
C1147      C1152   1.414       .  A
C1148      C1149   1.394       .  A
C1148      C1153   1.445       .  S
C1149      C1150   1.417       .  A
C1149      C1156   1.452       .  S
C1150      C1151   1.422       .  A
C1151      C1152   1.425       .  A
C1151      C1154   1.449       .  S
C1152      C1155   1.440       .  S
C1153      N1160   1.156       .  T
C1154      N1159   1.157       .  T
C1155      N1157   1.155       .  T
C1156      N1158   1.157       .  T
C1161      C1162   1.423       .  A
C1161      C1166   1.424       .  A
C1162      C1163   1.405       .  A
C1162      C1167   1.453       .  S
C1163      C1164   1.405       .  A
C1163      C1170   1.452       .  S
C1164      C1165   1.405       .  A
C1165      C1166   1.419       .  A
C1165      C1168   1.444       .  S
C1166      C1169   1.443       .  S
C1167      N1174   1.157       .  T
C1168      N1173   1.155       .  T
C1169      N1171   1.156       .  T
C1170      N1172   1.157       .  T
C1175      C1176   1.419       .  A
C1175      C1180   1.423       .  A
C1176      C1177   1.414       .  A
C1176      C1181   1.453       .  S
C1177      C1178   1.416       .  A
C1177      C1184   1.449       .  S
C1178      C1179   1.415       .  A
C1179      C1180   1.413       .  A
C1179      C1182   1.455       .  S
C1180      C1183   1.448       .  S
C1181      N1188   1.157       .  T
C1182      N1187   1.158       .  T
C1183      N1185   1.156       .  T
C1184      N1186   1.156       .  T
C1189      C1190   1.416       .  A
C1189      C1194   1.414       .  A
C1190      C1191   1.408       .  A
C1190      C1195   1.453       .  S
C1191      C1192   1.416       .  A
C1191      C1198   1.452       .  S
C1192      C1193   1.413       .  A
C1193      C1194   1.413       .  A
C1193      C1196   1.450   1_655  S
C1194      C1197   1.441   1_655  S
C1195      N1202   1.157       .  T
C1196      N1201   1.157       .  T
C1197      N1199   1.154       .  T
C1198      N1200   1.157       .  T
C1203      C1204   1.403       .  A
C1203      C1208   1.411       .  A
C1204      C1205   1.404       .  A
C1204      C1209   1.458       .  S
C1205      C1206   1.428       .  A
C1205      C1212   1.447       .  S
C1206      C1207   1.422       .  A
C1207      C1208   1.414       .  A
C1207      C1210   1.451       .  S
C1208      C1211   1.447       .  S
C1209      N1216   1.157       .  T
C1210      N1215   1.158       .  T
C1211      N1213   1.156       .  T
C1212      N1214   1.155       .  T
C1217      C1218   1.412       .  A
C1217      C1222   1.410   1_655  A
C1218      C1219   1.411       .  A
C1218      C1223   1.443       .  S
C1219      C1220   1.414       .  A
C1219      C1226   1.450       .  S
C1220      C1221   1.417   1_655  A
C1221      C1222   1.409       .  A
C1221      C1224   1.442       .  S
C1222      C1225   1.452       .  S
C1223      N1230   1.155       .  T
C1224      N1229   1.153       .  T
C1225      N1227   1.157       .  T
C1226      N1228   1.157       .  T
C1231      C1232   1.430       .  A
C1231      C1236   1.423       .  A
C1232      C1233   1.415       .  A
C1232      C1237   1.444       .  S
C1233      C1234   1.410       .  A
C1233      C1240   1.457       .  S
C1234      C1235   1.421       .  A
C1235      C1236   1.420       .  A
C1235      C1238   1.453       .  S
C1236      C1239   1.451       .  S
C1237      N1244   1.155       .  T
C1238      N1243   1.158       .  T
C1239      N1241   1.157       .  T
C1240      N1242   1.158       .  T
C1245      C1246   1.439       .  A
C1245      C1250   1.427       .  A
C1246      C1247   1.404       .  A
C1246      C1251   1.452       .  S
C1247      C1248   1.398       .  A
C1247      C1254   1.456       .  S
C1248      C1249   1.410       .  A
C1249      C1250   1.415       .  A
C1249      C1252   1.450       .  S
C1250      C1253   1.449       .  S
C1251      N1258   1.158       .  T
C1252      N1257   1.157       .  T
C1253      N1255   1.158       .  T
C1254      N1256   1.157       .  T
C1259      C1260   1.410       .  A
C1259      C1264   1.401       .  A
C1260      C1261   1.402       .  A
C1260      C1265   1.453       .  S
C1261      C1262   1.419       .  A
C1261      C1268   1.454       .  S
C1262      C1263   1.418       .  A
C1263      C1264   1.410       .  A
C1263      C1266   1.439       .  S
C1264      C1267   1.442       .  S
C1265      N1272   1.157       .  T
C1266      N1271   1.154       .  T
C1267      N1269   1.154       .  T
C1268      N1270   1.157       .  T
