geometry optimzed in LAMMPS
_audit_creation_date              2020-11-30 
_audit_creation_method            'lammps2cif' 
_symmetry_space_group_name_H-M    'P1' 
_symmetry_Int_Tables_number       1 
_symmetry_cell_setting            triclinic 
loop_ 
_symmetry_equiv_pos_as_xyz 
  x,y,z 
_cell_length_a                    29.9114943 
_cell_length_b                    31.463810532204125 
_cell_length_c                    39.45337682630945 
_cell_angle_alpha                 91.66379406780746 
_cell_angle_beta                  89.65707761535361 
_cell_angle_gamma                 88.75268935269546 
loop_ 
_atom_site_label 
_atom_site_type_symbol 
_atom_site_fract_x 
_atom_site_fract_y 
_atom_site_fract_z 
_atom_site_charge 
C1          C  0.24082084  0.01294017  0.00461952    -0.01600
O2          O  0.45606388  0.96236036  0.28662904    -0.73500
O3          O  0.54967504  0.95758492  0.21927504    -0.73600
O4          O  0.54726310  0.95306445  0.28776611    -0.73600
O5          O  0.45953494  0.96607191  0.21801458    -0.73700
O6          O  0.46471441  0.03659303  0.22275148    -0.73600
O7          O  0.55328252  0.02343881  0.29187729    -0.73600
O8          O  0.55497661  0.02784298  0.22370382    -0.73600
O9          O  0.46207624  0.03241357  0.29106199    -0.73600
Ni10       Ni  0.50289099  0.95724771  0.25288609     1.25400
Ni11       Ni  0.50895572  0.03253026  0.25763112     1.25400
C12         C  0.44267902  0.99830992  0.29954054     0.88600
C13         C  0.56765421  0.99204912  0.21012167     0.88600
C14         C  0.56585654  0.98612195  0.30049859     0.88600
C15         C  0.44792247  0.00339066  0.20880274     0.88800
C16         C  0.77582616  0.99413283  0.50206740    -0.01600
C17         C  0.98750694  0.24521441  0.49093874    -0.01600
O18         O  0.04722678  0.54270693  0.21108386    -0.73500
O19         O  0.04036557  0.46060386  0.28125906    -0.73600
O20         O  0.04258423  0.45707081  0.21235295    -0.73600
O21         O  0.04599737  0.54660781  0.28037883    -0.73700
O22         O  0.97163441  0.55202367  0.27955612    -0.73600
O23         O  0.96814744  0.46183044  0.21189459    -0.73600
O24         O  0.96639051  0.46646215  0.28048653    -0.73600
O25         O  0.97301400  0.54746991  0.21028427    -0.73600
Ni26       Ni  0.04671026  0.50163572  0.24629919     1.25400
Ni27       Ni  0.96720418  0.50726470  0.24551309     1.25400
C28         C  0.01101432  0.55813082  0.19859832     0.88600
C29         C  0.00199550  0.44984059  0.29260613     0.88600
C30         C  0.00489551  0.44457444  0.20105304     0.88600
C31         C  0.00928544  0.56318365  0.29192360     0.88800
C32         C  0.01872638  0.75948744  0.50454019    -0.01600
C33         C  0.99324320  0.61648447  0.37910391    -0.11000
C34         C  0.01784850  0.65353136  0.37593595     0.11600
C35         C  0.04043025  0.66090276  0.34504436    -0.02800
C36         C  0.03667288  0.63081402  0.31794966    -0.05500
C37         C  0.01055210  0.59444030  0.32082754    -0.16300
C38         C  0.98850913  0.58705977  0.35198171     0.02600
C39         C  0.01964398  0.68289848  0.40623213     0.12600
C40         C  0.06797316  0.70038457  0.34074179     0.63200
H41         H  0.05388532  0.63556633  0.29417513     0.12600
C42         C  0.96140360  0.54750995  0.35715858     0.55300
H43         H  0.97741752  0.61097897  0.40330510     0.08400
C44         C  0.98195429  0.70673912  0.41738047    -0.05400
C45         C  0.98273939  0.72676841  0.44953545    -0.06100
C46         C  0.02194487  0.73063607  0.46988493    -0.15700
C47         C  0.06018072  0.70446681  0.45822234    -0.01300
C48         C  0.05727822  0.68135347  0.42688331    -0.08900
C49         C  0.94048118  0.71103321  0.39541737     0.65400
H50         H  0.95068943  0.73800734  0.45889954     0.10900
C51         C  0.10392648  0.69759810  0.47760385     0.63800
H52         H  0.08443210  0.66053470  0.41805726     0.08200
F53         F  0.92516649  0.54732285  0.33559974    -0.19300
F54         F  0.94518676  0.54549998  0.39000213    -0.15500
F55         F  0.98801786  0.51174112  0.35070093    -0.19000
F56         F  0.10304603  0.70053831  0.36337981    -0.22400
F57         F  0.04147112  0.73640299  0.34668569    -0.23800
F58         F  0.08572941  0.70222527  0.30834447    -0.17800
F59         F  0.09617467  0.67994506  0.50853000    -0.20300
F60         F  0.12698678  0.73502562  0.97708049    -0.21500
F61         F  0.13330897  0.66975438  0.46052398    -0.18600
F62         F  0.91006770  0.74083071  0.40893009    -0.18700
F63         F  0.91928895  0.67256845  0.39232542    -0.22600
F64         F  0.95253402  0.72409092  0.36353713    -0.24200
C65         C  0.98521943  0.64382657  0.13378053    -0.11000
C66         C  0.02247598  0.63905696  0.11225731     0.11600
C67         C  0.05652818  0.60884457  0.11955546    -0.02800
C68         C  0.05128131  0.58334279  0.14799197    -0.05500
C69         C  0.01350350  0.58731111  0.16944696    -0.16300
C70         C  0.97975924  0.61839090  0.16224759     0.02600
C71         C  0.02531829  0.66743480  0.08289608     0.12600
C72         C  0.09839167  0.60381366  0.09760072     0.63200
H73         H  0.07683199  0.55970955  0.15354671     0.12600
C74         C  0.93835136  0.62553852  0.18439137     0.55300
H75         H  0.96009568  0.66771302  0.12777758     0.08400
C76         C  0.00239862  0.65935109  0.05247332    -0.05400
C77         C  0.00393736  0.68975135  0.02708575    -0.06100
C78         C  0.02815176  0.72822955  0.03007011    -0.15700
C79         C  0.05856270  0.73067074  0.05873858    -0.01300
C80         C  0.05175899  0.70323144  0.08587822    -0.08900
C81         C  0.97455412  0.61979036  0.04742066     0.65400
H82         H  0.98398396  0.68391325  0.00484345     0.10900
C83         C  0.10150069  0.75593997  0.06299808     0.63800
H84         H  0.07016433  0.70794098  0.10926445     0.08200
F85         F  0.91091073  0.59085435  0.18120840    -0.19300
F86         F  0.91371251  0.66112303  0.17523962    -0.15500
F87         F  0.95062563  0.63148803  0.21792086    -0.19000
F88         F  0.12245533  0.64077906  0.09937589    -0.22400
F89         F  0.08700200  0.59535964  0.06422880    -0.23800
F90         F  0.12599821  0.57087915  0.10802578    -0.17800
F91         F  0.09424270  0.79004632  0.08532068    -0.20300
F92         F  0.11964699  0.76960596  0.03345778    -0.21500
F93         F  0.13457609  0.73025310  0.07672658    -0.18600
F94         F  0.95678182  0.61678634  0.01513389    -0.18700
F95         F  0.93951301  0.62072106  0.07043317    -0.22600
F96         F  0.00064825  0.58371028  0.05218942    -0.24200
C97         C  0.95997559  0.37597564  0.36169905    -0.11000
C98         C  0.00045530  0.36241102  0.37576705     0.11600
C99         C  0.04120128  0.37496945  0.36123057    -0.02800
C100        C  0.03990317  0.40347260  0.33436283    -0.05500
C101        C  0.99931743  0.41854963  0.32059107    -0.16300
C102        C  0.95828572  0.40347271  0.33412858     0.02600
C103        C  0.99869831  0.33361207  0.40502134     0.12600
C104        C  0.08580948  0.35736288  0.37343150     0.63200
H105        H  0.07108936  0.41390939  0.32374735     0.12600
C106        C  0.91260133  0.41541051  0.31998953     0.55300
H107        H  0.92941928  0.36469278  0.37284282     0.08400
C108        C  0.99464103  0.34911172  0.43867410    -0.05400
C109        C  0.99354178  0.31983777  0.46494728    -0.06100
C110        C  0.99174173  0.27490662  0.45939023    -0.15700
C111        C  0.99691665  0.25984076  0.42429602    -0.01300
C112        C  0.99989749  0.28989250  0.39841129    -0.08900
C113        C  0.99070742  0.39668245  0.44678739     0.65400
H114        H  0.99419577  0.33321527  0.49016267     0.10900
C115        C  0.00197945  0.21332891  0.41231498     0.63800
H116        H  0.00382201  0.27958458  0.37212633     0.08200
F117        F  0.90429196  0.45856689  0.32477073    -0.19300
F118        F  0.87836649  0.39446166  0.33579697    -0.15500
F119        F  0.91102454  0.40445704  0.28582741    -0.19000
F120        F  0.08769081  0.31379277  0.36781018    -0.22400
F121        F  0.09082559  0.36619779  0.40767774    -0.23800
F122        F  0.12151802  0.37459920  0.35653413    -0.17800
F123        F  0.99615724  0.20833498  0.37762188    -0.20300
F124        F  0.97070415  0.18828083  0.42700294    -0.21500
F125        F  0.04458799  0.19832713  0.41919908    -0.18600
F126        F  0.98623259  0.40544851  0.48124826    -0.18700
F127        F  0.95347132  0.41356786  0.43101901    -0.22600
F128        F  0.02823400  0.41692951  0.43543082    -0.24200
C129        C  0.98083311  0.34301944  0.15001243    -0.11000
C130        C  0.00610079  0.34938697  0.12061110     0.11600
C131        C  0.03114110  0.38679585  0.11778188    -0.02800
C132        C  0.03043704  0.41661747  0.14504741    -0.05500
C133        C  0.00438106  0.41080188  0.17418671    -0.16300
C134        C  0.97934693  0.37330005  0.17699913     0.02600
C135        C  0.00017170  0.31966445  0.09122443     0.12600
C136        C  0.05763584  0.39556734  0.08580145     0.63200
H137        H  0.04937444  0.44546346  0.14346646     0.12600
C138        C  0.95171456  0.36500543  0.20841601     0.55300
H139        H  0.96114740  0.31459598  0.15113089     0.08400
C140        C  0.02699545  0.28303374  0.08532889    -0.05400
C141        C  0.02094058  0.25918532  0.05504288    -0.06100
C142        C  0.98825889  0.26992694  0.03018936    -0.15700
C143        C  0.95468200  0.30128032  0.04164092    -0.01300
C144        C  0.96404327  0.32751682  0.07013613    -0.08900
C145        C  0.06013020  0.26799988  0.11173781     0.65400
H146        H  0.04141351  0.23085467  0.05172418     0.10900
C147        C  0.90782581  0.30704674  0.02688409     0.63800
H148        H  0.94210831  0.35415841  0.07728741     0.08200
F149        F  0.93364633  0.32484612  0.20718953    -0.19300
F150        F  0.91680689  0.39442332  0.21131686    -0.15500
F151        F  0.97834244  0.36805883  0.23688894    -0.19000
F152        F  0.02970010  0.39534204  0.05801079    -0.22400
F153        F  0.09075862  0.36474007  0.08069709    -0.23800
F154        F  0.07781050  0.43473586  0.08781648    -0.17800
F155        F  0.88383643  0.27050779  0.03043268    -0.20300
F156        F  0.90945273  0.31792586  0.99360261    -0.21500
F157        F  0.88324269  0.33916605  0.04358414    -0.18600
F158        F  0.08533505  0.23303041  0.10018148    -0.18700
F159        F  0.03697933  0.25670869  0.14042582    -0.22600
F160        F  0.08925806  0.29989157  0.12050001    -0.24200
C161        C  0.88433241  0.92142913  0.01188574    -0.11000
C162        C  0.86455259  0.87942722  0.50565705     0.11600
C163        C  0.81786146  0.87638602  0.50301557    -0.02800
C164        C  0.79176406  0.91416320  0.50514278    -0.05500
C165        C  0.81013351  0.95549046  0.50747225    -0.16300
C166        C  0.85745357  0.95830083  0.01696365     0.02600
C167        C  0.89642530  0.84263175  0.50257038     0.12600
C168        C  0.79571788  0.83389286  0.49651536     0.63200
H169        H  0.75627218  0.91150953  0.50318621     0.12600
C170        C  0.88399319  0.99410514  0.03395694     0.55300
H171        H  0.92015935  0.92291957  0.01594348     0.08400
C172        C  0.92703696  0.83897448  0.47558160    -0.05400
C173        C  0.96452305  0.81217887  0.47888008    -0.06100
C174        C  0.97084055  0.78353033  0.50602242    -0.15700
C175        C  0.93536336  0.78375599  0.02637210    -0.01300
C176        C  0.90275283  0.81705886  0.02636048    -0.08900
C177        C  0.92085364  0.86421572  0.44360623     0.65400
H178        H  0.98962393  0.81287205  0.45909357     0.10900
C179        C  0.92486605  0.74774473  0.05022712     0.63800
H180        H  0.87892875  0.82112851  0.04699828     0.08200
F181        F  0.91414104  0.00960808  0.01090914    -0.19300
F182        F  0.90811653  0.97782390  0.06072647    -0.15500
F183        F  0.85935747  0.02722271  0.04785571    -0.19000
F184        F  0.80299260  0.80762277  0.52347000    -0.22400
F185        F  0.81322468  0.81447690  0.46733250    -0.23800
F186        F  0.74993502  0.83855880  0.49241967    -0.17800
F187        F  0.88604251  0.75577910  0.06888609    -0.20300
F188        F  0.95795884  0.74137745  0.07369890    -0.21500
F189        F  0.91721521  0.71110728  0.03131176    -0.18600
F190        F  0.94893111  0.84919725  0.41770229    -0.18700
F191        F  0.92988502  0.90653087  0.45008636    -0.22600
F192        F  0.87734032  0.86089904  0.43231605    -0.24200
C193        C  0.86028681  0.08323666  0.47858660    -0.11000
C194        C  0.84842638  0.11571619  0.00777095     0.11600
C195        C  0.81005359  0.11090390  0.02800170    -0.02800
C196        C  0.78799959  0.07170590  0.02637401    -0.05500
C197        C  0.80100866  0.03763902  0.49995199    -0.16300
C198        C  0.83533901  0.04587145  0.47491780     0.02600
C199        C  0.87673663  0.15406677  0.00899747     0.12600
C200        C  0.79171102  0.14752928  0.05025588     0.63200
H201        H  0.76083731  0.06797945  0.04386291     0.12600
C202        C  0.84580513  0.01861918  0.44291226     0.55300
H203        H  0.88839374  0.08878244  0.46198967     0.08400
C204        C  0.91164200  0.15965596  0.03233310    -0.05400
C205        C  0.94254143  0.19143635  0.02671628    -0.06100
C206        C  0.94303015  0.21833682  0.49333849    -0.15700
C207        C  0.90379884  0.21585864  0.47167088    -0.01300
C208        C  0.87323926  0.18280986  0.47697459    -0.08900
C209        C  0.92059284  0.13185035  0.06254099     0.65400
H210        H  0.96982695  0.19309876  0.04451446     0.10900
C211        C  0.88785252  0.24452245  0.44319226     0.63800
H212        H  0.84513449  0.17890630  0.45995641     0.08200
F213        F  0.88351058  0.03195392  0.42603001    -0.19300
F214        F  0.81082131  0.02224760  0.42047929    -0.15500
F215        F  0.85407827  0.97666020  0.44983347    -0.19000
F216        F  0.78258040  0.18208386  0.03034597    -0.22400
F217        F  0.82246236  0.15908876  0.07460769    -0.23800
F218        F  0.75251969  0.13714267  0.06661825    -0.17800
F219        F  0.84455051  0.25856399  0.45051073    -0.20300
F220        F  0.88714760  0.22099174  0.41302294    -0.21500
F221        F  0.91162881  0.28017718  0.43778455    -0.18600
F222        F  0.92142875  0.15724839  0.09175329    -0.18700
F223        F  0.96185943  0.11158289  0.05836963    -0.22600
F224        F  0.88911222  0.10122111  0.06702042    -0.24200
C225        C  0.67413149  0.99810506  0.35025039    -0.11000
C226        C  0.66495969  0.97400740  0.37869440     0.11600
C227        C  0.62445563  0.95156485  0.38029145    -0.02800
C228        C  0.59389368  0.95486597  0.35341339    -0.05500
C229        C  0.60184019  0.98105172  0.32591944    -0.16300
C230        C  0.64331821  0.00195564  0.32360436     0.02600
C231        C  0.69501501  0.97858108  0.40844381     0.12600
C232        C  0.61195937  0.92681955  0.41128848     0.63200
H233        H  0.56222556  0.93890107  0.35461762     0.12600
C234        C  0.65557671  0.02749963  0.29293995     0.55300
H235        H  0.70510296  0.01529898  0.34977217     0.08400
C236        C  0.73354222  0.95305964  0.41309279    -0.05400
C237        C  0.75861071  0.95911027  0.44295520    -0.06100
C238        C  0.74847271  0.99181183  0.46786926    -0.15700
C239        C  0.71258864  0.02152801  0.45949168    -0.01300
C240        C  0.68588075  0.01248333  0.43095688    -0.08900
C241        C  0.74900992  0.92070702  0.38594185     0.65400
H242        H  0.78712479  0.93835199  0.44599594     0.10900
C243        C  0.70175070  0.06405792  0.47797739     0.63800
H244        H  0.65759346  0.03288929  0.42493650     0.08200
F245        F  0.69946197  0.04057322  0.29419215    -0.19300
F246        F  0.62834199  0.06341840  0.29140728    -0.15500
F247        F  0.65065905  0.00279686  0.26369073    -0.19000
F248        F  0.60377796  0.95486553  0.43825923    -0.22400
F249        F  0.64619708  0.89896285  0.41964669    -0.23800
F250        F  0.57390494  0.90333379  0.40592726    -0.17800
F251        F  0.73520004  0.09233320  0.47166652    -0.20300
F252        F  0.69404132  0.05856632  0.01387140    -0.21500
F253        F  0.66247122  0.08285397  0.46670340    -0.18600
F254        F  0.78686151  0.89812958  0.39558302    -0.18700
F255        F  0.75905298  0.94155252  0.35657480    -0.22600
F256        F  0.71580039  0.89193974  0.37909694    -0.24200
C257        C  0.65921125  0.95807149  0.14564970    -0.11000
C258        C  0.66376093  0.99573113  0.12799681     0.11600
C259        C  0.63791322  0.03216825  0.13774473    -0.02800
C260        C  0.60807201  0.02958715  0.16523481    -0.05500
C261        C  0.60238726  0.99158524  0.18271219    -0.16300
C262        C  0.62918317  0.95516185  0.17307378     0.02600
C263        C  0.69230179  0.99434658  0.09708989     0.12600
C264        C  0.64069572  0.07311577  0.11839351     0.63200
H265        H  0.58759682  0.05720285  0.17243526     0.12600
C266        C  0.62675514  0.91331227  0.19123357     0.55300
H267        H  0.67879161  0.93043703  0.13701308     0.08400
C268        C  0.73900321  0.99750338  0.09815737    -0.05400
C269        C  0.76314923  0.99458863  0.06745620    -0.06100
C270        C  0.74287814  0.98918783  0.03512797    -0.15700
C271        C  0.69620538  0.97715546  0.03601684    -0.01300
C272        C  0.67186328  0.98432747  0.06641740    -0.08900
C273        C  0.76327926  0.00408724  0.13158012     0.65400
H274        H  0.79836068  0.99714949  0.06875483     0.10900
C275        C  0.66801263  0.95461713  0.00900583     0.63800
H276        H  0.63610933  0.97913815  0.06686833     0.08200
F277        F  0.66001978  0.88468371  0.18036400    -0.19300
F278        F  0.58603924  0.89473499  0.18497655    -0.15500
F279        F  0.63197791  0.92029708  0.22574552    -0.19000
F280        F  0.62559490  0.06641740  0.08567126    -0.22400
F281        F  0.68439831  0.08636653  0.11717833    -0.23800
F282        F  0.61494219  0.10562268  0.13344557    -0.17800
F283        F  0.64471719  0.92223753  0.02375714    -0.20300
F284        F  0.69035504  0.93575256  0.48220427    -0.21500
F285        F  0.63712319  0.98335964  0.99655599    -0.18600
F286        F  0.80885971  0.00831984  0.12692020    -0.18700
F287        F  0.75677032  0.96964577  0.15185665    -0.22600
F288        F  0.74703859  0.04047057  0.14829312    -0.24200
C289        C  0.19191650  0.89519619  0.00049449    -0.11000
C290        C  0.14507797  0.90309345  0.49950612     0.11600
C291        C  0.13027563  0.94503829  0.49409127    -0.02800
C292        C  0.16102103  0.97803439  0.49707421    -0.05500
C293        C  0.20751788  0.97206454  0.50448972    -0.16300
C294        C  0.22452388  0.92715662  0.99990700     0.02600
C295        C  0.11413519  0.86655187  0.50025046     0.12600
C296        C  0.08250314  0.95733682  0.48469016     0.63200
H297        H  0.14722717  0.00899177  0.49176113     0.12600
C298        C  0.27282325  0.91020870  0.99600441     0.55300
H299        H  0.20163231  0.86227007  0.00398538     0.08400
C300        C  0.10880710  0.83823332  0.47237158    -0.05400
C301        C  0.07726614  0.80577365  0.47459631    -0.06100
C302        C  0.05166830  0.79852349  0.50436753    -0.15700
C303        C  0.05521852  0.83256462  0.02671485    -0.01300
C304        C  0.08768761  0.86422103  0.02422160    -0.08900
C305        C  0.13593844  0.84291632  0.44004784     0.65400
H306        H  0.07277002  0.78606186  0.45222169     0.10900
C307        C  0.02132713  0.84048451  0.05540982     0.63800
H308        H  0.09030520  0.88888773  0.04380526     0.08200
F309        F  0.27486732  0.86651013  0.99045734    -0.19300
F310        F  0.29726072  0.91800284  0.02471465    -0.15500
F311        F  0.29326022  0.92676850  0.96818324    -0.19000
F312        F  0.06391802  0.98281932  0.51043845    -0.22400
F313        F  0.05509106  0.92308629  0.47918792    -0.23800
F314        F  0.08311754  0.98003214  0.45518587    -0.17800
F315        F  0.03911516  0.86436868  0.08192183    -0.20300
F316        F  0.00725523  0.80366148  0.06918298    -0.21500
F317        F  0.98508124  0.86315774  0.04329810    -0.18600
F318        F  0.12322580  0.81456558  0.41458727    -0.18700
F319        F  0.18073213  0.83544483  0.44656275    -0.22600
F320        F  0.13025248  0.88362482  0.42822290    -0.24200
C321        C  0.11163858  0.19584550  0.99652474    -0.11000
C322        C  0.10320792  0.15359193  0.49388942     0.11600
C323        C  0.05996162  0.13928314  0.48667152    -0.02800
C324        C  0.02491766  0.16931300  0.48406560    -0.05500
C325        C  0.03047919  0.21409604  0.48791035    -0.16300
C326        C  0.07679491  0.22650742  0.99256138     0.02600
C327        C  0.14140609  0.12305785  0.49873783     0.12600
C328        C  0.05060814  0.09211369  0.48190752     0.63200
H329        H  0.99268060  0.15674154  0.47834822     0.12600
C330        C  0.09143611  0.27225243  0.98727331     0.55300
H331        H  0.14580034  0.20562479  0.99990963     0.08400
C332        C  0.17462372  0.11497362  0.47385882    -0.05400
C333        C  0.20712301  0.08294178  0.47923652    -0.06100
C334        C  0.20640630  0.05548982  0.50736362    -0.15700
C335        C  0.17771600  0.06583495  0.03286456    -0.01300
C336        C  0.14672903  0.09978714  0.02868575    -0.08900
C337        C  0.17543094  0.13962726  0.44125004     0.65400
H338        H  0.23362193  0.08024901  0.46082302     0.10900
C339        C  0.17535160  0.04408441  0.06705675     0.63800
H340        H  0.12338115  0.10909994  0.04875894     0.08200
F341        F  0.08329448  0.28319935  0.95423073    -0.19300
F342        F  0.13685866  0.27687263  0.99242056    -0.15500
F343        F  0.07020039  0.30105659  0.00914648    -0.19000
F344        F  0.05599812  0.07207098  0.51233877    -0.22400
F345        F  0.07976481  0.07385505  0.45806964    -0.23800
F346        F  0.00748076  0.08500970  0.47084916    -0.17800
F347        F  0.21224130  0.05406217  0.08631713    -0.20300
F348        F  0.17203747  0.00069247  0.06294053    -0.21500
F349        F  0.13827163  0.05745302  0.08603026    -0.18600
F350        F  0.20725930  0.12337300  0.41847529    -0.18700
F351        F  0.18527850  0.18161351  0.44842546    -0.22600
F352        F  0.13425871  0.13778134  0.42557368    -0.24200
C353        C  0.34712857  0.97236668  0.36115344    -0.11000
C354        C  0.33824665  0.01239382  0.37648533     0.11600
C355        C  0.36087481  0.04812232  0.36467785    -0.02800
C356        C  0.39374652  0.04198576  0.33918440    -0.05500
C357        C  0.40458031  0.00144926  0.32469422    -0.16300
C358        C  0.37878389  0.96621485  0.33472756     0.02600
C359        C  0.31189264  0.01412717  0.40871264     0.12600
C360        C  0.35143500  0.09244890  0.37972584     0.63200
H361        H  0.41222874  0.06917006  0.33120560     0.12600
C362        C  0.38399278  0.92211311  0.31823703     0.55300
H363        H  0.33018620  0.94534901  0.37119980     0.08400
C364        C  0.26553422  0.00765334  0.41061728    -0.05400
C365        C  0.24518198  0.00579545  0.44286091    -0.06100
C366        C  0.26889377  0.01023828  0.47406859    -0.15700
C367        C  0.31737472  0.01116757  0.47073162    -0.01300
C368        C  0.33631611  0.01673269  0.43848452    -0.08900
C369        C  0.23730283  0.00453881  0.37879264     0.65400
H370        H  0.20928088  0.00315906  0.44383463     0.10900
C371        C  0.35333407  0.00258361  0.49710652     0.63800
H372        H  0.37226219  0.01988418  0.43600819     0.08200
F373        F  0.35214840  0.89458864  0.32979606    -0.19300
F374        F  0.42563795  0.90486640  0.32549131    -0.15500
F375        F  0.37882308  0.92455184  0.28351528    -0.19000
F376        F  0.36866255  0.09576389  0.41209066    -0.22400
F377        F  0.30583691  0.10056570  0.38114193    -0.23800
F378        F  0.37049432  0.12346711  0.36046089    -0.17800
F379        F  0.38723185  0.97684067  0.48301924    -0.20300
F380        F  0.34292929  0.98039462  0.02256368    -0.21500
F381        F  0.37202949  0.04048047  0.50755906    -0.18600
F382        F  0.19219757  0.00163311  0.38627203    -0.18700
F383        F  0.24995016  0.96887856  0.35954052    -0.22600
F384        F  0.24297661  0.04027411  0.35978930    -0.24200
C385        C  0.34452286  0.02863362  0.15667621    -0.11000
C386        C  0.35756299  0.01135260  0.12484690     0.11600
C387        C  0.40132651  0.99377590  0.12034232    -0.02800
C388        C  0.42951637  0.99136524  0.14865314    -0.05500
C389        C  0.41612704  0.00779315  0.18058838    -0.16300
C390        C  0.37334764  0.02742152  0.18477160     0.02600
C391        C  0.32495899  0.01309557  0.09651251     0.12600
C392        C  0.41857945  0.97858320  0.08572792     0.63200
H393        H  0.46275413  0.97722805  0.14600069     0.12600
C394        C  0.35799985  0.04604725  0.21888790     0.53700
H395        H  0.31137545  0.04294466  0.15929445     0.08400
C396        C  0.29288724  0.98156816  0.09107218    -0.05400
C397        C  0.26517453  0.98391417  0.06244933    -0.06100
C398        C  0.26821114  0.01649162  0.03839981    -0.15700
C399        C  0.29620568  0.05206488  0.04770144    -0.01300
C400        C  0.32482737  0.04840602  0.07594523    -0.08900
C401        C  0.28796918  0.94549774  0.11554840     0.65400
H402        H  0.24117507  0.95931098  0.05895078     0.10900
C403        C  0.29594363  0.09499166  0.03028058     0.63800
H404        H  0.34757608  0.07352426  0.08269586     0.08200
F405        F  0.31442913  0.06170373  0.21785706    -0.19300
F406        F  0.38520805  0.07916272  0.22856029    -0.15500
F407        F  0.36014729  0.01501951  0.24298641    -0.19000
F408        F  0.41755583  0.01208440  0.06385574    -0.22400
F409        F  0.39233431  0.94634543  0.07300063    -0.23800
F410        F  0.46225121  0.96320444  0.08702804    -0.17800
F411        F  0.25696511  0.11745081  0.03832765    -0.20300
F412        F  0.30019208  0.09034951  0.99562959    -0.21500
F413        F  0.33092188  0.12011080  0.04095844    -0.18600
F414        F  0.25451184  0.91803909  0.10586570    -0.18700
F415        F  0.27736875  0.96197069  0.14752350    -0.22600
F416        F  0.32756449  0.92220011  0.11712549    -0.24200
C417        C  0.23810891  0.01377219  0.50729365    -0.01600
O418        O  0.45852302  0.95868017  0.78461809    -0.73500
O419        O  0.55257465  0.95548131  0.71793418    -0.73600
O420        O  0.54974012  0.95028377  0.78643176    -0.73600
O421        O  0.46217787  0.96349248  0.71634284    -0.73700
O422        O  0.46694158  0.03403735  0.72172855    -0.73600
O423        O  0.55486206  0.02071175  0.79084918    -0.73600
O424        O  0.55720872  0.02580051  0.72281955    -0.73600
O425        O  0.46418170  0.02875733  0.78951148    -0.73600
Ni426      Ni  0.50558475  0.95440330  0.75123162     1.25400
Ni427      Ni  0.51102112  0.02975087  0.75648687     1.25400
C428        C  0.44496459  0.99446218  0.79763324     0.88600
C429        C  0.57026790  0.99020850  0.70913810     0.88600
C430        C  0.56767818  0.98353398  0.79949799     0.88600
C431        C  0.44996671  0.00095936  0.70782062     0.88800
C432        C  0.77507526  0.99446395  0.00324516    -0.01600
C433        C  0.98780171  0.24372571  0.99461418    -0.01600
O434        O  0.04646231  0.53899728  0.71345293    -0.73500
O435        O  0.03959579  0.45535885  0.78259694    -0.73600
O436        O  0.04408704  0.45296337  0.71340020    -0.73600
O437        O  0.04297755  0.54131599  0.78243253    -0.73700
O438        O  0.96854142  0.54491884  0.78075906    -0.73600
O439        O  0.96967722  0.45662432  0.71154171    -0.73600
O440        O  0.96561207  0.45933079  0.78027320    -0.73600
O441        O  0.97221865  0.54260578  0.71175777    -0.73600
Ni442      Ni  0.04595850  0.49702175  0.74802626     1.25400
Ni443      Ni  0.96642617  0.50102621  0.74596238     1.25400
C444        C  0.01024877  0.55452862  0.70102873     0.88600
C445        C  0.00116779  0.44390529  0.79337837     0.88600
C446        C  0.00702497  0.44018387  0.70112702     0.88600
C447        C  0.00562356  0.55700995  0.79347019     0.88800
C448        C  0.01973712  0.76070690  0.00065329    -0.01600
C449        C  0.98850490  0.61383381  0.87907136    -0.11000
C450        C  0.01440437  0.64996069  0.87510929     0.11600
C451        C  0.03672597  0.65604206  0.84392712    -0.02800
C452        C  0.03265145  0.62501539  0.81772176    -0.05500
C453        C  0.00591068  0.58930819  0.82147783    -0.16300
C454        C  0.98280002  0.58382495  0.85247729     0.02600
C455        C  0.01722028  0.68042002  0.90453050     0.12600
C456        C  0.06411115  0.69528767  0.83822971     0.63200
H457        H  0.05015079  0.62849535  0.79387858     0.12600
C458        C  0.95324369  0.54599042  0.85792225     0.55300
H459        H  0.97251319  0.60951361  0.90339341     0.08400
C460        C  0.98025674  0.70548498  0.91527563    -0.05400
C461        C  0.98258978  0.72802185  0.94625771    -0.06100
C462        C  0.02228878  0.73183715  0.96610068    -0.15700
C463        C  0.05987123  0.70459564  0.95474653    -0.01300
C464        C  0.05567253  0.67986957  0.92432257    -0.08900
C465        C  0.93730296  0.70741601  0.89476637     0.65400
H466        H  0.95096547  0.74052494  0.95546044     0.10900
C467        C  0.10404819  0.69789832  0.97373050     0.63800
H468        H  0.08229832  0.65829289  0.91571830     0.08200
F469        F  0.91782953  0.54702849  0.83559173    -0.19300
F470        F  0.93565146  0.54603610  0.89047294    -0.15500
F471        F  0.97790588  0.50870612  0.85270482    -0.19000
F472        F  0.10005698  0.69606513  0.86004666    -0.22400
F473        F  0.03778219  0.73146223  0.84402620    -0.23800
F474        F  0.08057797  0.69612942  0.80538525    -0.17800
F475        F  0.09690927  0.68100024  0.00502173    -0.20300
F476        F  0.12642452  0.73487454  0.48168344    -0.21500
F477        F  0.13286557  0.66948048  0.95668782    -0.18600
F478        F  0.90930330  0.74070750  0.90579856    -0.18700
F479        F  0.91443086  0.67000911  0.89769775    -0.22600
F480        F  0.94703788  0.71348682  0.86096199    -0.24200
C481        C  0.98482897  0.64399068  0.63936873    -0.11000
C482        C  0.02116386  0.63904945  0.61694294     0.11600
C483        C  0.05465671  0.60775214  0.62286643    -0.02800
C484        C  0.04997427  0.58159234  0.65095516    -0.05500
C485        C  0.01278347  0.58527596  0.67296209    -0.16300
C486        C  0.97948470  0.61730874  0.66713346     0.02600
C487        C  0.02340168  0.66755823  0.58758555     0.12600
C488        C  0.09492259  0.60170442  0.59937587     0.63200
H489        H  0.07517142  0.55724002  0.65551707     0.12600
C490        C  0.93860547  0.62398403  0.68992469     0.55300
H491        H  0.96011724  0.66868245  0.63443831     0.08400
C492        C  0.99930631  0.65988827  0.55761684    -0.05400
C493        C  0.00206388  0.68932418  0.53153087    -0.06100
C494        C  0.02733010  0.72713924  0.53394787    -0.15700
C495        C  0.05832824  0.72927108  0.56227965    -0.01300
C496        C  0.05141990  0.70229904  0.58971519    -0.08900
C497        C  0.96838695  0.62228698  0.55406574     0.65400
H498        H  0.98169724  0.68379835  0.50943337     0.10900
C499        C  0.10168806  0.75397379  0.56629130     0.63800
H500        H  0.07082723  0.70652142  0.61268347     0.08200
F501        F  0.91073608  0.58967969  0.68628797    -0.19300
F502        F  0.91406833  0.66010655  0.68189347    -0.15500
F503        F  0.95166480  0.62852512  0.72339172    -0.19000
F504        F  0.12031233  0.63786529  0.60033854    -0.22400
F505        F  0.08097359  0.59390526  0.56648853    -0.23800
F506        F  0.12210212  0.56784969  0.60858583    -0.17800
F507        F  0.09569396  0.78656952  0.59022915    -0.20300
F508        F  0.11863820  0.76990695  0.53718681    -0.21500
F509        F  0.13511102  0.72694571  0.57786397    -0.18600
F510        F  0.94968504  0.61917289  0.52210109    -0.18700
F511        F  0.93393453  0.62680839  0.57749184    -0.22600
F512        F  0.99171532  0.58477493  0.55962958    -0.24200
C513        C  0.95860607  0.37278150  0.86424345    -0.11000
C514        C  0.99899960  0.35861479  0.87806031     0.11600
C515        C  0.03982809  0.37039449  0.86321039    -0.02800
C516        C  0.03874462  0.39784258  0.83561821    -0.05500
C517        C  0.99826516  0.41333643  0.82191420    -0.16300
C518        C  0.95708220  0.39997818  0.83646576     0.02600
C519        C  0.99718062  0.33031413  0.90762005     0.12600
C520        C  0.08432250  0.35347220  0.87622234     0.63200
H521        H  0.07000946  0.40733182  0.82452405     0.12600
C522        C  0.91135014  0.41381871  0.82345304     0.55300
H523        H  0.92798736  0.36233811  0.87583975     0.08400
C524        C  0.99342752  0.34642263  0.94112268    -0.05400
C525        C  0.99328331  0.31768309  0.96774044    -0.06100
C526        C  0.99170741  0.27269037  0.96271993    -0.15700
C527        C  0.99659041  0.25690867  0.92782124    -0.01300
C528        C  0.99886363  0.28645872  0.90152366    -0.08900
C529        C  0.98847586  0.39402922  0.94874218     0.65400
H530        H  0.99418487  0.33153586  0.99281059     0.10900
C531        C  0.00196655  0.21017088  0.91650618     0.63800
H532        H  0.00263449  0.27563125  0.87534528     0.08200
F533        F  0.90589723  0.45743980  0.82717942    -0.19300
F534        F  0.87676551  0.39570296  0.84105832    -0.15500
F535        F  0.90717898  0.40151442  0.78969758    -0.19000
F536        F  0.08631168  0.30969078  0.87216275    -0.22400
F537        F  0.08895848  0.36420972  0.91020698    -0.23800
F538        F  0.12019484  0.36978633  0.85892464    -0.17800
F539        F  0.99540014  0.20431536  0.88196666    -0.20300
F540        F  0.97141344  0.18508878  0.93201765    -0.21500
F541        F  0.04490052  0.19580953  0.92309199    -0.18600
F542        F  0.98560374  0.40340178  0.98320617    -0.18700
F543        F  0.94987872  0.40948901  0.93392921    -0.22600
F544        F  0.02465265  0.41509103  0.93597120    -0.24200
C545        C  0.98158046  0.34090972  0.64775297    -0.11000
C546        C  0.00736720  0.34758701  0.61866276     0.11600
C547        C  0.03439937  0.38386121  0.61718916    -0.02800
C548        C  0.03472882  0.41250804  0.64530125    -0.05500
C549        C  0.00754938  0.40673862  0.67390174    -0.16300
C550        C  0.98115449  0.36996686  0.67556733     0.02600
C551        C  0.00097194  0.31897670  0.58856262     0.12600
C552        C  0.06098220  0.39319463  0.58539959     0.63200
H553        H  0.05470858  0.44077365  0.64453701     0.12600
C554        C  0.95293878  0.36123452  0.70662038     0.55300
H555        H  0.96057180  0.31330604  0.64797982     0.08400
C556        C  0.02605692  0.28121324  0.58271680    -0.05400
C557        C  0.01992792  0.25830426  0.55198915    -0.06100
C558        C  0.98806811  0.27050490  0.52695316    -0.15700
C559        C  0.95526441  0.30233925  0.53867236    -0.01300
C560        C  0.96542512  0.32830038  0.56721863    -0.08900
C561        C  0.05788699  0.26444599  0.60938005     0.65400
H562        H  0.03963031  0.22952436  0.54845154     0.10900
C563        C  0.90832170  0.30846034  0.52428815     0.63800
H564        H  0.94425296  0.35549115  0.57437466     0.08200
F565        F  0.93551672  0.32082723  0.70503761    -0.19300
F566        F  0.91759882  0.39022311  0.70912881    -0.15500
F567        F  0.97879003  0.36448950  0.73550829    -0.19000
F568        F  0.03210546  0.39915713  0.55863418    -0.22400
F569        F  0.08998454  0.35964069  0.57722482    -0.23800
F570        F  0.08601109  0.42944534  0.58957176    -0.17800
F571        F  0.88440372  0.27181380  0.52758016    -0.20300
F572        F  0.90959987  0.31983194  0.49110395    -0.21500
F573        F  0.88405755  0.34034664  0.54153586    -0.18600
F574        F  0.07800407  0.22604723  0.59930005    -0.18700
F575        F  0.03448418  0.25813375  0.63907573    -0.22600
F576        F  0.09118973  0.29321966  0.61588365    -0.24200
C577        C  0.88292289  0.91873440  0.51316310    -0.11000
C578        C  0.86683824  0.88194440  0.00367795     0.11600
C579        C  0.82027849  0.87788804  0.00100328    -0.02800
C580        C  0.79311593  0.91481955  0.00455327    -0.05500
C581        C  0.81035846  0.95646239  0.00790114    -0.16300
C582        C  0.85715927  0.95653101  0.51678610     0.02600
C583        C  0.89913549  0.84563997  0.00012829     0.12600
C584        C  0.79945497  0.83522573  0.99265096     0.63200
H585        H  0.75773873  0.91134992  0.00270597     0.12600
C586        C  0.88512682  0.99279863  0.53158606     0.55300
H587        H  0.91879690  0.91949925  0.51722971     0.08400
C588        C  0.92943205  0.84232897  0.97292765    -0.05400
C589        C  0.96627759  0.81456060  0.97544101    -0.06100
C590        C  0.97226429  0.78525635  0.00219734    -0.15700
C591        C  0.93393645  0.78239806  0.53037208    -0.01300
C592        C  0.90055267  0.81506178  0.52945607    -0.08900
C593        C  0.92437307  0.86954995  0.94194086     0.65400
H594        H  0.99121061  0.81526694  0.95551782     0.10900
C595        C  0.92402306  0.74742562  0.55542010     0.63800
H596        H  0.87659849  0.81955541  0.54995338     0.08200
F597        F  0.91457955  0.00575796  0.50699141    -0.19300
F598        F  0.91014162  0.97787459  0.55841209    -0.15500
F599        F  0.86195449  0.02745512  0.54471976    -0.19000
F600        F  0.80682138  0.80756984  0.01868591    -0.22400
F601        F  0.81815744  0.81790714  0.96308667    -0.23800
F602        F  0.75371807  0.83905462  0.98800002    -0.17800
F603        F  0.88599380  0.75647169  0.57477017    -0.20300
F604        F  0.95779484  0.74155316  0.57838319    -0.21500
F605        F  0.91534005  0.71019989  0.53760201    -0.18600
F606        F  0.94882484  0.85253720  0.91468761    -0.18700
F607        F  0.93919382  0.91006640  0.94922371    -0.22600
F608        F  0.88005379  0.87193791  0.93219328    -0.24200
C609        C  0.85927394  0.08475925  0.98301290    -0.11000
C610        C  0.84908609  0.11560214  0.50205541     0.11600
C611        C  0.81075195  0.11178011  0.52243187    -0.02800
C612        C  0.78982957  0.07205314  0.52310723    -0.05500
C613        C  0.79946615  0.03844614  0.00224206    -0.16300
C614        C  0.83399101  0.04790916  0.97774500     0.02600
C615        C  0.87779030  0.15367673  0.50282853     0.12600
C616        C  0.78995730  0.15038081  0.54106810     0.63200
H617        H  0.76307991  0.06917438  0.54109183     0.12600
C618        C  0.84431768  0.02254107  0.94477147     0.55300
H619        H  0.88744694  0.09107068  0.96668876     0.08400
C620        C  0.91339822  0.15761425  0.52558853    -0.05400
C621        C  0.94285612  0.19116170  0.52180126    -0.06100
C622        C  0.94327583  0.21712333  0.99744167    -0.15700
C623        C  0.90406288  0.21416088  0.97582272    -0.01300
C624        C  0.87327096  0.18160568  0.98192304    -0.08900
C625        C  0.92353874  0.12377612  0.55147975     0.65400
H626        H  0.97023939  0.19267865  0.53935404     0.10900
C627        C  0.88820560  0.24182587  0.94668062     0.63800
H628        H  0.84559107  0.17690532  0.96461573     0.08200
F629        F  0.88143964  0.03736650  0.92800202    -0.19300
F630        F  0.80887934  0.02682327  0.92281608    -0.15500
F631        F  0.85343835  0.98031937  0.95023690    -0.19000
F632        F  0.78059896  0.18156329  0.51798222    -0.22400
F633        F  0.81874167  0.16655883  0.56514452    -0.23800
F634        F  0.75030913  0.14074705  0.55713019    -0.17800
F635        F  0.84472966  0.25577136  0.95349961    -0.20300
F636        F  0.88797019  0.21739815  0.91694964    -0.21500
F637        F  0.91165496  0.27752457  0.94074882    -0.18600
F638        F  0.96020697  0.13357546  0.57124601    -0.18700
F639        F  0.93278727  0.08545036  0.53469740    -0.22600
F640        F  0.88754951  0.11904295  0.57296516    -0.24200
C641        C  0.67423225  0.99917340  0.85055761    -0.11000
C642        C  0.66531948  0.97504954  0.87902898     0.11600
C643        C  0.62551475  0.95149583  0.88033390    -0.02800
C644        C  0.59562559  0.95318507  0.85289281    -0.05500
C645        C  0.60332949  0.97923397  0.82526633    -0.16300
C646        C  0.64385318  0.00183539  0.82353249     0.02600
C647        C  0.69524882  0.97990238  0.90886302     0.12600
C648        C  0.61290795  0.92748166  0.91167636     0.63200
H649        H  0.56452067  0.93624551  0.85380867     0.12600
C650        C  0.65545629  0.02820665  0.79314954     0.55300
H651        H  0.70458873  0.01732219  0.85034755     0.08400
C652        C  0.73393307  0.95460314  0.91344510    -0.05400
C653        C  0.75888536  0.96057711  0.94338628    -0.06100
C654        C  0.74805466  0.99255880  0.96878974    -0.15700
C655        C  0.71181478  0.02197573  0.96064325    -0.01300
C656        C  0.68558099  0.01334103  0.93172998    -0.08900
C657        C  0.74942518  0.92229585  0.88622227     0.65400
H658        H  0.78776153  0.94021868  0.94612929     0.10900
C659        C  0.70029354  0.06392497  0.97975774     0.63800
H660        H  0.65715267  0.03360794  0.92579296     0.08200
F661        F  0.69878997  0.04267495  0.79476849    -0.19300
F662        F  0.62706104  0.06334585  0.79177711    -0.15500
F663        F  0.65163459  0.00376957  0.76364869    -0.19000
F664        F  0.60371814  0.95625512  0.93798702    -0.22400
F665        F  0.64748694  0.90052622  0.92096819    -0.23800
F666        F  0.57539916  0.90321161  0.90641637    -0.17800
F667        F  0.73356137  0.09269743  0.97432881    -0.20300
F668        F  0.69589171  0.05965782  0.51225293    -0.21500
F669        F  0.66097840  0.08262701  0.96845809    -0.18600
F670        F  0.78742504  0.89986158  0.89573149    -0.18700
F671        F  0.75916359  0.94312498  0.85678389    -0.22600
F672        F  0.71631051  0.89336830  0.87951011    -0.24200
C673        C  0.66363047  0.95822026  0.64592447    -0.11000
C674        C  0.66635986  0.99550297  0.62756448     0.11600
C675        C  0.63865475  0.03103312  0.63637371    -0.02800
C676        C  0.60877239  0.02795980  0.66370800    -0.05500
C677        C  0.60498046  0.99031929  0.68192346    -0.16300
C678        C  0.63355120  0.95481296  0.67321766     0.02600
C679        C  0.69444339  0.99433886  0.59655334     0.12600
C680        C  0.63992975  0.07160456  0.61639543     0.63200
H681        H  0.58686367  0.05481833  0.67025790     0.12600
C682        C  0.63304880  0.91354329  0.69231854     0.55300
H683        H  0.68456005  0.93121523  0.63788786     0.08400
C684        C  0.74094909  0.99879678  0.59714279    -0.05400
C685        C  0.76447550  0.99666711  0.56619194    -0.06100
C686        C  0.74374819  0.99029422  0.53410593    -0.15700
C687        C  0.69713266  0.97785142  0.53541780    -0.01300
C688        C  0.67351240  0.98428955  0.56614939    -0.08900
C689        C  0.76564914  0.00567699  0.63033592     0.65400
H690        H  0.79960028  0.00031393  0.56709428     0.10900
C691        C  0.66799339  0.95621986  0.50843663     0.63800
H692        H  0.63781655  0.97887124  0.56706797     0.08200
F693        F  0.66735462  0.88581834  0.68187485    -0.19300
F694        F  0.59316703  0.89315358  0.68673561    -0.15500
F695        F  0.63825637  0.92198057  0.72665091    -0.19000
F696        F  0.62640289  0.06351770  0.58344064    -0.22400
F697        F  0.68290704  0.08685751  0.61595135    -0.23800
F698        F  0.61197829  0.10318302  0.63036655    -0.17800
F699        F  0.64326106  0.92476459  0.52315005    -0.20300
F700        F  0.69112473  0.93520281  0.98265673    -0.21500
F701        F  0.63823894  0.98596691  0.49590906    -0.18600
F702        F  0.81058136  0.01314009  0.62515350    -0.18700
F703        F  0.76228261  0.96995377  0.64969288    -0.22600
F704        F  0.74729929  0.04028788  0.64824278    -0.24200
C705        C  0.19040435  0.89530664  0.50507143    -0.11000
C706        C  0.14662065  0.90353567  0.99532182     0.11600
C707        C  0.13214207  0.94570132  0.99050347    -0.02800
C708        C  0.16321945  0.97832902  0.99386703    -0.05500
C709        C  0.20973652  0.97169228  0.00098831    -0.16300
C710        C  0.22273551  0.92760803  0.50459844     0.02600
C711        C  0.11541236  0.86729966  0.99600297     0.12600
C712        C  0.08440996  0.95863557  0.98149037     0.63200
H713        H  0.14963139  0.00953660  0.98913652     0.12600
C714        C  0.27133536  0.91090304  0.50254302     0.55300
H715        H  0.20036972  0.86254216  0.50903399     0.08400
C716        C  0.11033984  0.83867687  0.96829191    -0.05400
C717        C  0.07883874  0.80621958  0.97066392    -0.06100
C718        C  0.05307698  0.79934964  0.00041547    -0.15700
C719        C  0.05400492  0.83145219  0.53089345    -0.01300
C720        C  0.08653918  0.86314505  0.52852999    -0.08900
C721        C  0.13743955  0.84322110  0.93591898     0.65400
H722        H  0.07438694  0.78627674  0.94840312     0.10900
C723        C  0.02051689  0.83870172  0.55991617     0.63800
H724        H  0.08933307  0.88758660  0.54826720     0.08200
F725        F  0.27383102  0.86737031  0.49613581    -0.19300
F726        F  0.29355198  0.91776383  0.53250218    -0.15500
F727        F  0.29393657  0.92828777  0.47612235    -0.19000
F728        F  0.06640475  0.98400219  0.00753445    -0.22400
F729        F  0.05651765  0.92476664  0.97591669    -0.23800
F730        F  0.08498826  0.98166540  0.95215791    -0.17800
F731        F  0.03803781  0.86325965  0.58614517    -0.20300
F732        F  0.00800514  0.80161287  0.57398757    -0.21500
F733        F  0.98327924  0.86017440  0.54814190    -0.18600
F734        F  0.12539574  0.81411716  0.91080106    -0.18700
F735        F  0.18237143  0.83674529  0.94247736    -0.22600
F736        F  0.13087496  0.88358784  0.92361360    -0.24200
C737        C  0.11068931  0.19727695  0.49555573    -0.11000
C738        C  0.10430307  0.15215195  0.99523238     0.11600
C739        C  0.06047458  0.13772736  0.99060609    -0.02800
C740        C  0.02517655  0.16770007  0.98907969    -0.05500
C741        C  0.03081973  0.21256962  0.99183209    -0.16300
C742        C  0.07635171  0.22794044  0.48997211     0.02600
C743        C  0.14307339  0.12179381  0.99870172     0.12600
C744        C  0.05078463  0.09047480  0.98728109     0.63200
H745        H  0.99267585  0.15494520  0.98475628     0.12600
C746        C  0.09128079  0.27356393  0.48474572     0.55300
H747        H  0.14452947  0.20705359  0.50050097     0.08400
C748        C  0.17501098  0.11377251  0.97281180    -0.05400
C749        C  0.20854952  0.08239289  0.97752595    -0.06100
C750        C  0.20924498  0.05477354  0.00557169    -0.15700
C751        C  0.17414136  0.06714353  0.53401607    -0.01300
C752        C  0.14304268  0.10076049  0.52871156    -0.08900
C753        C  0.17318146  0.13760642  0.93982029     0.65400
H754        H  0.23434159  0.08000240  0.95851697     0.10900
C755        C  0.17144338  0.04667282  0.56871870     0.63800
H756        H  0.11842246  0.10988934  0.54793902     0.08200
F757        F  0.08362392  0.28446107  0.45161527    -0.19300
F758        F  0.13666189  0.27798968  0.49019839    -0.15500
F759        F  0.06979225  0.30240657  0.50646496    -0.19000
F760        F  0.05957887  0.07116102  0.01758179    -0.22400
F761        F  0.07728678  0.07170978  0.96195779    -0.23800
F762        F  0.00658064  0.08304397  0.97922275    -0.17800
F763        F  0.20821479  0.05733223  0.58788639    -0.20300
F764        F  0.16817517  0.00318094  0.56562705    -0.21500
F765        F  0.13425804  0.06080444  0.58725203    -0.18600
F766        F  0.20412029  0.12156324  0.91625644    -0.18700
F767        F  0.18210417  0.18002210  0.94593544    -0.22600
F768        F  0.13119909  0.13425815  0.92560831    -0.24200
C769        C  0.34980601  0.96865002  0.85923852    -0.11000
C770        C  0.34110874  0.00892460  0.87422970     0.11600
C771        C  0.36379523  0.04449572  0.86233584    -0.02800
C772        C  0.39602455  0.03813127  0.83659561    -0.05500
C773        C  0.40693339  0.99742711  0.82255283    -0.16300
C774        C  0.38170318  0.96208805  0.83306852     0.02600
C775        C  0.31501648  0.01120012  0.90636801     0.12600
C776        C  0.35544940  0.08883942  0.87775134     0.63200
H777        H  0.41423908  0.06529453  0.82826366     0.12600
C778        C  0.38800623  0.91751970  0.81755188     0.55300
H779        H  0.33267973  0.94184640  0.86947044     0.08400
C780        C  0.26848470  0.00672809  0.90816384    -0.05400
C781        C  0.24800601  0.00610827  0.94034330    -0.06100
C782        C  0.27180919  0.00986088  0.97159035    -0.15700
C783        C  0.32051140  0.00935314  0.96842794    -0.01300
C784        C  0.33958299  0.01328770  0.93604589    -0.08900
C785        C  0.24041921  0.00414450  0.87622484     0.65400
H786        H  0.21199864  0.00457716  0.94121499     0.10900
C787        C  0.35670913  0.00178695  0.99505978     0.63800
H788        H  0.37560806  0.01543413  0.93335536     0.08200
F789        F  0.35746490  0.88948878  0.83025405    -0.19300
F790        F  0.43034885  0.90176614  0.82461617    -0.15500
F791        F  0.38198108  0.91845101  0.78283714    -0.19000
F792        F  0.37216112  0.09116363  0.91031080    -0.22400
F793        F  0.31009472  0.09819967  0.87876774    -0.23800
F794        F  0.37591212  0.11966011  0.85911922    -0.17800
F795        F  0.39122239  0.97644817  0.98136847    -0.20300
F796        F  0.33877257  0.98105294  0.52431794    -0.21500
F797        F  0.37472875  0.04013286  0.00518949    -0.18600
F798        F  0.19513981  0.00290384  0.88352097    -0.18700
F799        F  0.25194910  0.96783737  0.85735288    -0.22600
F800        F  0.24764412  0.03932782  0.85689593    -0.24200
C801        C  0.34355001  0.02674783  0.65970027    -0.11000
C802        C  0.35623989  0.01371720  0.62663294     0.11600
C803        C  0.40028766  0.99756822  0.62037814    -0.02800
C804        C  0.42980148  0.99387796  0.64774336    -0.05500
C805        C  0.41679307  0.00606542  0.68075255    -0.16300
C806        C  0.37310949  0.02266349  0.68714184     0.02600
C807        C  0.32236505  0.01612333  0.59917452     0.12600
C808        C  0.41608192  0.98406537  0.58504777     0.63200
H809        H  0.46354620  0.98150454  0.64362200     0.12600
C810        C  0.35746026  0.03424348  0.72294755     0.53700
H811        H  0.30992984  0.03935645  0.66389285     0.08400
C812        C  0.29031371  0.98452097  0.59414833    -0.05400
C813        C  0.26203101  0.98675083  0.56585804    -0.06100
C814        C  0.26531282  0.01853216  0.54117316    -0.15700
C815        C  0.29335623  0.05427363  0.54998529    -0.01300
C816        C  0.32201476  0.05115979  0.57829427    -0.08900
C817        C  0.28630467  0.94822607  0.61854598     0.65400
H818        H  0.23752482  0.96249186  0.56304956     0.10900
C819        C  0.29315759  0.09682364  0.53197849     0.63800
H820        H  0.34490366  0.07629818  0.58466595     0.08200
F821        F  0.31307111  0.04765742  0.72387079    -0.19300
F822        F  0.38292619  0.06670380  0.73636113    -0.15500
F823        F  0.36186356  0.99907835  0.74299783    -0.19000
F824        F  0.41368491  0.01847638  0.56417668    -0.22400
F825        F  0.38958216  0.95198807  0.57238574    -0.23800
F826        F  0.45992288  0.96900046  0.58473768    -0.17800
F827        F  0.25371967  0.11904887  0.53896381    -0.20300
F828        F  0.29862675  0.09148509  0.49747868    -0.21500
F829        F  0.32744622  0.12259749  0.54296630    -0.18600
F830        F  0.25530313  0.91880241  0.60780143    -0.18700
F831        F  0.27294595  0.96419815  0.65009445    -0.22600
F832        F  0.32707408  0.92713774  0.62150067    -0.24200
loop_ 
_geom_bond_atom_site_label_1 
_geom_bond_atom_site_label_2 
_geom_bond_distance 
_geom_bond_site_symmetry_2 
_ccdc_geom_bond_type 
C1          C398   1.571       .  S
C1          C709   1.616   1_545  S
C1          C750   1.603       .  S
C1          C782   1.594   1_554  S
O2          Ni10   1.928       .  S
O2           C12   1.282       .  A
O3          Ni10   1.923       .  S
O3           C13   1.281       .  A
O4          Ni10   1.923       .  S
O4           C14   1.281       .  A
O5          Ni10   1.918       .  S
O5           C15   1.281   1_565  A
O6          Ni11   1.920       .  S
O6           C15   1.280       .  A
O7          Ni11   1.922       .  S
O7           C14   1.281   1_545  A
O8          Ni11   1.915       .  S
O8           C13   1.282   1_545  A
O9          Ni11   1.919       .  S
O9           C12   1.283   1_545  A
Ni10        Ni11   2.382   1_565  S
C12         C357   1.506   1_565  S
C13         C261   1.495       .  S
C14         C229   1.485       .  S
C15         C389   1.476       .  S
C16         C165   1.594       .  S
C16         C197   1.581   1_565  S
C16         C238   1.583       .  S
C16         C686   1.591       .  S
C17         C110   1.584       .  S
C17         C206   1.596       .  S
C17         C325   1.601   1_655  S
C17         C558   1.609       .  S
O18         Ni26   1.925       .  S
O18          C28   1.284       .  A
O19         Ni26   1.928       .  S
O19          C29   1.285       .  A
O20         Ni26   1.917       .  S
O20          C30   1.280       .  A
O21         Ni26   1.923       .  S
O21          C31   1.281       .  A
O22         Ni27   1.925       .  S
O22          C31   1.282   1_655  A
O23         Ni27   1.921       .  S
O23          C30   1.281   1_655  A
O24         Ni27   1.912       .  S
O24          C29   1.278   1_655  A
O25         Ni27   1.916       .  S
O25          C28   1.279   1_655  A
Ni26        Ni27   2.381   1_455  S
C28          C69   1.495       .  S
C29         C101   1.503   1_455  S
C30         C133   1.479       .  S
C31          C37   1.485       .  S
C32          C46   1.620       .  S
C32         C174   1.605   1_455  S
C32         C302   1.591       .  S
C32         C494   1.584       .  S
C33          C34   1.400   1_655  A
C33          C38   1.404       .  A
C33          H43   1.083       .  S
C34          C39   1.491       .  S
C34          C35   1.417       .  A
C35          C40   1.519       .  S
C35          C36   1.414       .  A
C36          C37   1.407       .  A
C36          H41   1.083       .  S
C37          C38   1.419   1_455  A
C38          C42   1.518       .  S
C39          C44   1.402   1_455  A
C39          C48   1.394       .  A
C40          F56   1.382       .  S
C40          F57   1.382       .  S
C40          F58   1.384       .  S
C42          F53   1.382       .  S
C42          F54   1.385       .  S
C42          F55   1.381       .  S
C44          C49   1.523       .  S
C44          C45   1.401       .  A
C45          C46   1.431   1_655  A
C45          H50   1.074       .  S
C46          C47   1.459       .  A
C47          C51   1.534       .  S
C47          C48   1.420       .  A
C48          H52   1.082       .  S
C49          F62   1.385       .  S
C49          F63   1.381       .  S
C49          F64   1.383       .  S
C51          F59   1.376       .  S
C51          F61   1.385       .  S
C51         F476   1.371       .  S
F60         C467   1.371       .  S
C65          C66   1.400   1_655  A
C65          C70   1.409       .  A
C65          H75   1.083       .  S
C66          C71   1.486       .  S
C66          C67   1.415       .  A
C67          C72   1.521       .  S
C67          C68   1.408       .  A
C68          C69   1.409       .  A
C68          H73   1.082       .  S
C69          C70   1.426   1_455  A
C70          C74   1.520       .  S
C71          C76   1.405       .  A
C71          C80   1.393       .  A
C72          F88   1.381       .  S
C72          F89   1.382       .  S
C72          F90   1.384       .  S
C74          F85   1.383       .  S
C74          F86   1.385       .  S
C74          F87   1.384       .  S
C76          C81   1.522   1_455  S
C76          C77   1.406       .  A
C77          C78   1.427       .  A
C77          H82   1.078   1_455  S
C78         C448   1.586       .  S
C78          C79   1.457       .  A
C79          C83   1.533       .  S
C79          C80   1.411       .  A
C80          H84   1.085       .  S
C81          F94   1.385       .  S
C81          F95   1.382       .  S
C81          F96   1.382   1_655  S
C83          F91   1.381       .  S
C83          F92   1.367       .  S
C83          F93   1.386       .  S
C97          C98   1.398   1_655  A
C97         C102   1.410       .  A
C97         H107   1.083       .  S
C98         C103   1.489   1_455  S
C98          C99   1.413       .  A
C99         C104   1.520       .  S
C99         C100   1.408       .  A
C100        C101   1.411   1_455  A
C100        H105   1.082       .  S
C101        C102   1.431       .  A
C102        C106   1.523       .  S
C103        C108   1.405       .  A
C103        C112   1.392       .  A
C104        F120   1.382       .  S
C104        F121   1.381       .  S
C104        F122   1.385       .  S
C106        F117   1.382       .  S
C106        F118   1.385       .  S
C106        F119   1.383       .  S
C108        C113   1.523       .  S
C108        C109   1.407       .  A
C109        C110   1.427       .  A
C109        H114   1.069       .  S
C110        C111   1.457       .  A
C111        C115   1.529   1_655  S
C111        C112   1.415       .  A
C112        H116   1.082   1_655  S
C113        F126   1.385       .  S
C113        F127   1.383       .  S
C113        F128   1.381   1_655  S
C115        F123   1.386   1_455  S
C115        F124   1.373   1_455  S
C115        F125   1.381       .  S
C129        C130   1.402   1_655  A
C129        C134   1.408       .  A
C129        H139   1.083       .  S
C130        C135   1.482       .  S
C130        C131   1.416       .  A
C131        C136   1.521       .  S
C131        C132   1.407       .  A
C132        C133   1.404       .  A
C132        H137   1.083       .  S
C133        C134   1.418   1_455  A
C134        C138   1.518       .  S
C135        C140   1.403       .  A
C135        C144   1.390   1_455  A
C136        F152   1.382       .  S
C136        F153   1.381       .  S
C136        F154   1.384       .  S
C138        F149   1.385       .  S
C138        F150   1.382       .  S
C138        F151   1.383       .  S
C140        C145   1.521       .  S
C140        C141   1.407       .  A
C141        C142   1.431   1_455  A
C141        H146   1.075       .  S
C142        C433   1.607   1_554  S
C142        C143   1.453       .  A
C143        C147   1.530       .  S
C143        C144   1.408       .  A
C144        H148   1.083       .  S
C145        F158   1.385       .  S
C145        F159   1.383       .  S
C145        F160   1.381       .  S
C147        F155   1.378       .  S
C147        F156   1.367   1_554  S
C147        F157   1.385       .  S
C161        C166   1.406       .  A
C161        C578   1.389       .  A
C161        H171   1.086       .  S
C162        C167   1.485       .  S
C162        C163   1.406       .  A
C162        C577   1.389       .  A
C163        C168   1.521       .  S
C163        C164   1.408       .  A
C164        C165   1.423       .  A
C164        H169   1.070       .  S
C165        C582   1.457       .  A
C166        C170   1.533       .  S
C166        C581   1.457       .  A
C167        C172   1.401       .  A
C167        C592   1.394       .  A
C168        F184   1.381       .  S
C168        F185   1.382       .  S
C168        F186   1.385       .  S
C170        F181   1.383   1_565  S
C170        F182   1.387       .  S
C170        F183   1.363   1_565  S
C172        C177   1.520       .  S
C172        C173   1.397       .  A
C173        C174   1.430       .  A
C173        H178   1.081       .  S
C174        C591   1.461       .  A
C175        C179   1.530       .  S
C175        C176   1.416       .  A
C175        C590   1.457       .  A
C176        C583   1.394       .  A
C176        H180   1.082       .  S
C177        F190   1.385       .  S
C177        F191   1.381       .  S
C177        F192   1.383       .  S
C179        F187   1.386       .  S
C179        F188   1.375       .  S
C179        F189   1.379       .  S
C193        C198   1.411       .  A
C193        C610   1.390       .  A
C193        H203   1.083       .  S
C194        C199   1.489       .  S
C194        C195   1.407       .  A
C194        C609   1.391   1_554  A
C195        C200   1.519       .  S
C195        C196   1.411       .  A
C196        C613   1.429       .  A
C196        H201   1.073       .  S
C197        C198   1.453       .  A
C197        C612   1.429       .  A
C198        C202   1.532       .  S
C199        C204   1.407       .  A
C199        C624   1.398   1_554  A
C200        F216   1.383       .  S
C200        F217   1.381       .  S
C200        F218   1.385       .  S
C202        F213   1.385       .  S
C202        F214   1.380       .  S
C202        F215   1.373   1_545  S
C204        C209   1.520       .  S
C204        C205   1.398       .  A
C205        C622   1.429   1_554  A
C205        H210   1.081       .  S
C206        C207   1.458       .  A
C206        C621   1.431       .  A
C207        C211   1.533       .  S
C207        C208   1.419       .  A
C208        C615   1.396       .  A
C208        H212   1.086       .  S
C209        F222   1.384       .  S
C209        F223   1.384       .  S
C209        F224   1.376       .  S
C211        F219   1.385       .  S
C211        F220   1.384       .  S
C211        F221   1.363       .  S
C225        C226   1.402       .  A
C225        C230   1.408   1_565  A
C225        H235   1.083   1_565  S
C226        C231   1.488       .  S
C226        C227   1.418       .  A
C227        C232   1.518       .  S
C227        C228   1.409       .  A
C228        C229   1.403       .  A
C228        H233   1.083       .  S
C229        C230   1.421   1_565  A
C230        C234   1.519       .  S
C231        C236   1.406       .  A
C231        C240   1.390   1_565  A
C232        F248   1.380       .  S
C232        F249   1.381       .  S
C232        F250   1.385       .  S
C234        F245   1.385       .  S
C234        F246   1.382       .  S
C234        F247   1.383       .  S
C236        C241   1.519       .  S
C236        C237   1.411       .  A
C237        C238   1.429       .  A
C237        H242   1.072       .  S
C238        C239   1.454   1_565  A
C239        C243   1.533       .  S
C239        C240   1.410       .  A
C240        H244   1.083       .  S
C241        F254   1.385       .  S
C241        F255   1.383       .  S
C241        F256   1.381       .  S
C243        F251   1.380       .  S
C243        F253   1.385       .  S
C243        F668   1.374       .  S
F252        C659   1.373   1_554  S
C257        C258   1.401       .  A
C257        C262   1.408       .  A
C257        H267   1.083       .  S
C258        C263   1.483       .  S
C258        C259   1.411   1_565  A
C259        C264   1.520       .  S
C259        C260   1.406       .  A
C260        C261   1.410   1_545  A
C260        H265   1.082       .  S
C261        C262   1.425       .  A
C262        C266   1.520       .  S
C263        C268   1.403       .  A
C263        C272   1.390       .  A
C264        F280   1.382       .  S
C264        F281   1.382       .  S
C264        F282   1.385       .  S
C266        F277   1.385       .  S
C266        F278   1.383       .  S
C266        F279   1.383       .  S
C268        C273   1.520   1_565  S
C268        C269   1.406       .  A
C269        C270   1.423       .  A
C269        H274   1.059       .  S
C270        C432   1.594       .  S
C270        C271   1.455       .  A
C271        C275   1.531       .  S
C271        C272   1.409       .  A
C272        H276   1.085       .  S
C273        F286   1.384       .  S
C273        F287   1.382   1_545  S
C273        F288   1.382       .  S
C275        F283   1.387       .  S
C275        F285   1.381   1_554  S
C275        F700   1.367   1_554  S
F284        C691   1.367       .  S
C289        C294   1.417   1_554  A
C289        C706   1.392   1_554  A
C289        H299   1.083       .  S
C290        C295   1.492       .  S
C290        C291   1.406       .  A
C290        C705   1.392       .  A
C291        C296   1.523       .  S
C291        C292   1.405       .  A
C292        C293   1.432       .  A
C292        H297   1.076   1_565  S
C293        C417   1.618   1_565  S
C293        C710   1.462       .  A
C294        C298   1.534       .  S
C294        C709   1.460   1_556  A
C295        C300   1.407       .  A
C295        C720   1.392       .  A
C296        F312   1.382       .  S
C296        F313   1.381       .  S
C296        F314   1.383       .  S
C298        F309   1.386       .  S
C298        F310   1.371   1_556  S
C298        F311   1.374       .  S
C300        C305   1.520       .  S
C300        C301   1.410       .  A
C301        C302   1.425       .  A
C301        H306   1.075       .  S
C302        C719   1.454       .  A
C303        C307   1.527       .  S
C303        C304   1.411       .  A
C303        C718   1.454       .  A
C304        C711   1.391   1_554  A
C304        H308   1.084       .  S
C305        F318   1.384       .  S
C305        F319   1.382       .  S
C305        F320   1.383       .  S
C307        F315   1.386       .  S
C307        F316   1.367       .  S
C307        F317   1.380   1_455  S
C321        C326   1.417       .  A
C321        C738   1.396       .  A
C321        H331   1.081       .  S
C322        C327   1.493       .  S
C322        C323   1.407       .  A
C322        C737   1.397       .  A
C323        C328   1.523       .  S
C323        C324   1.402       .  A
C324        C325   1.426       .  A
C324        H329   1.073   1_455  S
C325        C742   1.451       .  A
C326        C330   1.533       .  S
C326        C741   1.453       .  A
C327        C332   1.406       .  A
C327        C752   1.393       .  A
C328        F344   1.381       .  S
C328        F345   1.383       .  S
C328        F346   1.385       .  S
C330        F341   1.380       .  S
C330        F342   1.385       .  S
C330        F343   1.376   1_556  S
C332        C337   1.522       .  S
C332        C333   1.406       .  A
C333        C334   1.426       .  A
C333        H338   1.072       .  S
C334        C417   1.602       .  S
C334        C751   1.457       .  A
C335        C339   1.532       .  S
C335        C336   1.413       .  A
C335        C750   1.457       .  A
C336        C743   1.392   1_554  A
C336        H340   1.082       .  S
C337        F350   1.385       .  S
C337        F351   1.381       .  S
C337        F352   1.383       .  S
C339        F347   1.380       .  S
C339        F348   1.376       .  S
C339        F349   1.385       .  S
C353        C354   1.401   1_565  A
C353        C358   1.410       .  A
C353        H363   1.083       .  S
C354        C359   1.491       .  S
C354        C355   1.414       .  A
C355        C360   1.520       .  S
C355        C356   1.409       .  A
C356        C357   1.413       .  A
C356        H361   1.082       .  S
C357        C358   1.428   1_545  A
C358        C362   1.520       .  S
C359        C364   1.408       .  A
C359        C368   1.388       .  A
C360        F376   1.382       .  S
C360        F377   1.383       .  S
C360        F378   1.385       .  S
C362        F373   1.385       .  S
C362        F374   1.383       .  S
C362        F375   1.384       .  S
C364        C369   1.519       .  S
C364        C365   1.410       .  A
C365        C366   1.429       .  A
C365        H370   1.079       .  S
C366        C417   1.597       .  S
C366        C367   1.456       .  A
C367        C371   1.526       .  S
C367        C368   1.407       .  A
C368        H372   1.086       .  S
C369        F382   1.385       .  S
C369        F383   1.381   1_545  S
C369        F384   1.382       .  S
C371        F379   1.387   1_545  S
C371        F381   1.381       .  S
C371        F796   1.360   1_545  S
F380        C787   1.360   1_564  S
C385        C386   1.404       .  A
C385        C390   1.409       .  A
C385        H395   1.083       .  S
C386        C391   1.489       .  S
C386        C387   1.418   1_545  A
C387        C392   1.517       .  S
C387        C388   1.406       .  A
C388        C389   1.401   1_565  A
C388        H393   1.084       .  S
C389        C390   1.415       .  A
C390        C394   1.517       .  S
C391        C396   1.408   1_545  A
C391        C400   1.395       .  A
C392        F408   1.381   1_565  S
C392        F409   1.381       .  S
C392        F410   1.385       .  S
C394        F405   1.384       .  S
C394        F406   1.382       .  S
C394        F407   1.383       .  S
C396        C401   1.520       .  S
C396        C397   1.408       .  A
C397        C398   1.421   1_565  A
C397        H402   1.074       .  S
C398        C399   1.452       .  A
C399        C403   1.533       .  S
C399        C400   1.415       .  A
C400        H404   1.083       .  S
C401        F414   1.385       .  S
C401        F415   1.382       .  S
C401        F416   1.382       .  S
C403        F411   1.381       .  S
C403        F412   1.375   1_554  S
C403        F413   1.385       .  S
C417        C814   1.574       .  S
O418       Ni426   1.922       .  S
O418        C428   1.281       .  A
O419       Ni426   1.920       .  S
O419        C429   1.280       .  A
O420       Ni426   1.927       .  S
O420        C430   1.282       .  A
O421       Ni426   1.921       .  S
O421        C431   1.281   1_565  A
O422       Ni427   1.914       .  S
O422        C431   1.279       .  A
O423       Ni427   1.915       .  S
O423        C430   1.279   1_545  A
O424       Ni427   1.910       .  S
O424        C429   1.281   1_545  A
O425       Ni427   1.909       .  S
O425        C428   1.282   1_545  A
Ni426      Ni427   2.383   1_565  S
C428        C773   1.499       .  S
C429        C677   1.489       .  S
C430        C645   1.484       .  S
C431        C805   1.472       .  S
C432        C581   1.593       .  S
C432        C613   1.580   1_565  S
C432        C654   1.586   1_554  S
C433        C526   1.580       .  S
C433        C622   1.593       .  S
C433        C741   1.602   1_655  S
O434       Ni442   1.926       .  S
O434        C444   1.284       .  A
O435       Ni442   1.930       .  S
O435        C445   1.286       .  A
O436       Ni442   1.920       .  S
O436        C446   1.280       .  A
O437       Ni442   1.917       .  S
O437        C447   1.280       .  A
O438       Ni443   1.921       .  S
O438        C447   1.281   1_655  A
O439       Ni443   1.920       .  S
O439        C446   1.281   1_655  A
O440       Ni443   1.913       .  S
O440        C445   1.278   1_655  A
O441       Ni443   1.916       .  S
O441        C444   1.279   1_655  A
Ni442      Ni443   2.382   1_455  S
C444        C485   1.494       .  S
C445        C517   1.505   1_455  S
C446        C549   1.481       .  S
C447        C453   1.480       .  S
C448        C462   1.617   1_554  S
C448        C590   1.602   1_455  S
C448        C718   1.589       .  S
C449        C450   1.401   1_655  A
C449        C454   1.405       .  A
C449        H459   1.083       .  S
C450        C455   1.488       .  S
C450        C451   1.416       .  A
C451        C456   1.518       .  S
C451        C452   1.409       .  A
C452        C453   1.404       .  A
C452        H457   1.083       .  S
C453        C454   1.418   1_455  A
C454        C458   1.518       .  S
C455        C460   1.400   1_455  A
C455        C464   1.394       .  A
C456        F472   1.381       .  S
C456        F473   1.383       .  S
C456        F474   1.385       .  S
C458        F469   1.382       .  S
C458        F470   1.385       .  S
C458        F471   1.382       .  S
C460        C465   1.524       .  S
C460        C461   1.398       .  A
C461        C462   1.432   1_655  A
C461        H466   1.074       .  S
C462        C463   1.459       .  A
C463        C467   1.536       .  S
C463        C464   1.419       .  A
C464        H468   1.082       .  S
C465        F478   1.385       .  S
C465        F479   1.382       .  S
C465        F480   1.383       .  S
C467        F475   1.376   1_556  S
C467        F477   1.385       .  S
C481        C482   1.400   1_655  A
C481        C486   1.410       .  A
C481        H491   1.083       .  S
C482        C487   1.487       .  S
C482        C483   1.415       .  A
C483        C488   1.521       .  S
C483        C484   1.408       .  A
C484        C485   1.408       .  A
C484        H489   1.083       .  S
C485        C486   1.426   1_455  A
C486        C490   1.521       .  S
C487        C492   1.406   1_455  A
C487        C496   1.393       .  A
C488        F504   1.381       .  S
C488        F505   1.382       .  S
C488        F506   1.384       .  S
C490        F501   1.383       .  S
C490        F502   1.385       .  S
C490        F503   1.384       .  S
C492        C497   1.521       .  S
C492        C493   1.408   1_655  A
C493        C494   1.425       .  A
C493        H498   1.079   1_455  S
C494        C495   1.458       .  A
C495        C499   1.533       .  S
C495        C496   1.412       .  A
C496        H500   1.086       .  S
C497        F510   1.384       .  S
C497        F511   1.382       .  S
C497        F512   1.382       .  S
C499        F507   1.382       .  S
C499        F508   1.365       .  S
C499        F509   1.386       .  S
C513        C514   1.398       .  A
C513        C518   1.410       .  A
C513        H523   1.083       .  S
C514        C519   1.489       .  S
C514        C515   1.413   1_655  A
C515        C520   1.520       .  S
C515        C516   1.409       .  A
C516        C517   1.412   1_455  A
C516        H521   1.082       .  S
C517        C518   1.432       .  A
C518        C522   1.523       .  S
C519        C524   1.405       .  A
C519        C528   1.394       .  A
C520        F536   1.382       .  S
C520        F537   1.382       .  S
C520        F538   1.384       .  S
C522        F533   1.382       .  S
C522        F534   1.385       .  S
C522        F535   1.383       .  S
C524        C529   1.523       .  S
C524        C525   1.406       .  A
C525        C526   1.426       .  A
C525        H530   1.070       .  S
C526        C527   1.455       .  A
C527        C531   1.529   1_655  S
C527        C528   1.415       .  A
C528        H532   1.083   1_655  S
C529        F542   1.385       .  S
C529        F543   1.382       .  S
C529        F544   1.381   1_655  S
C531        F539   1.386   1_455  S
C531        F540   1.373   1_455  S
C531        F541   1.381       .  S
C545        C546   1.402   1_655  A
C545        C550   1.408       .  A
C545        H555   1.083       .  S
C546        C551   1.485       .  S
C546        C547   1.415       .  A
C547        C552   1.520       .  S
C547        C548   1.409       .  A
C548        C549   1.405       .  A
C548        H553   1.083       .  S
C549        C550   1.418   1_455  A
C550        C554   1.519       .  S
C551        C556   1.404       .  A
C551        C560   1.392   1_455  A
C552        F568   1.383       .  S
C552        F569   1.381       .  S
C552        F570   1.384       .  S
C554        F565   1.384       .  S
C554        F566   1.382       .  S
C554        F567   1.384       .  S
C556        C561   1.521       .  S
C556        C557   1.407       .  A
C557        C558   1.431   1_455  A
C557        H562   1.075       .  S
C558        C559   1.451       .  A
C559        C563   1.528       .  S
C559        C560   1.410       .  A
C560        H564   1.083       .  S
C561        F574   1.385       .  S
C561        F575   1.383       .  S
C561        F576   1.381       .  S
C563        F571   1.379       .  S
C563        F572   1.368       .  S
C563        F573   1.385       .  S
C577        C582   1.406       .  A
C577        H587   1.087       .  S
C578        C583   1.483       .  S
C578        C579   1.406       .  A
C579        C584   1.520   1_554  S
C579        C580   1.406       .  A
C580        C581   1.421       .  A
C580        H585   1.069       .  S
C582        C586   1.534       .  S
C583        C588   1.401   1_554  A
C584        F600   1.381   1_556  S
C584        F601   1.383       .  S
C584        F602   1.385       .  S
C586        F597   1.383   1_565  S
C586        F598   1.387       .  S
C586        F599   1.367   1_565  S
C588        C593   1.519       .  S
C588        C589   1.397       .  A
C589        C590   1.431   1_556  A
C589        H594   1.081       .  S
C591        C595   1.533       .  S
C591        C592   1.419       .  A
C592        H596   1.081       .  S
C593        F606   1.385       .  S
C593        F607   1.382       .  S
C593        F608   1.384       .  S
C595        F603   1.386       .  S
C595        F604   1.374       .  S
C595        F605   1.379       .  S
C609        C614   1.409       .  A
C609        H619   1.083       .  S
C610        C615   1.489       .  S
C610        C611   1.406       .  A
C611        C616   1.521       .  S
C611        C612   1.411       .  A
C612        H617   1.073       .  S
C613        C614   1.452   1_554  A
C614        C618   1.533       .  S
C615        C620   1.402       .  A
C616        F632   1.383       .  S
C616        F633   1.380       .  S
C616        F634   1.385       .  S
C618        F629   1.386       .  S
C618        F630   1.380       .  S
C618        F631   1.374   1_545  S
C620        C625   1.524       .  S
C620        C621   1.400       .  A
C621        H626   1.077       .  S
C622        C623   1.457       .  A
C623        C627   1.533       .  S
C623        C624   1.417       .  A
C624        H628   1.086       .  S
C625        F638   1.385       .  S
C625        F639   1.381       .  S
C625        F640   1.379       .  S
C627        F635   1.386       .  S
C627        F636   1.384       .  S
C627        F637   1.362       .  S
C641        C642   1.401       .  A
C641        C646   1.408   1_565  A
C641        H651   1.083   1_565  S
C642        C647   1.489       .  S
C642        C643   1.418       .  A
C643        C648   1.518       .  S
C643        C644   1.410       .  A
C644        C645   1.404       .  A
C644        H649   1.083       .  S
C645        C646   1.421   1_565  A
C646        C650   1.520       .  S
C647        C652   1.406       .  A
C647        C656   1.390   1_565  A
C648        F664   1.380       .  S
C648        F665   1.381       .  S
C648        F666   1.384       .  S
C650        F661   1.384       .  S
C650        F662   1.382       .  S
C650        F663   1.383       .  S
C652        C657   1.520       .  S
C652        C653   1.411       .  A
C653        C654   1.430       .  A
C653        H658   1.072       .  S
C654        C655   1.454   1_565  A
C655        C659   1.533       .  S
C655        C656   1.412       .  A
C656        H660   1.083       .  S
C657        F670   1.384       .  S
C657        F671   1.383       .  S
C657        F672   1.381       .  S
C659        F667   1.380       .  S
C659        F669   1.385       .  S
C673        C674   1.400       .  A
C673        C678   1.407       .  A
C673        H683   1.083       .  S
C674        C679   1.479       .  S
C674        C675   1.411   1_565  A
C675        C680   1.521       .  S
C675        C676   1.403       .  A
C676        C677   1.409   1_545  A
C676        H681   1.082       .  S
C677        C678   1.424       .  A
C678        C682   1.520       .  S
C679        C684   1.401       .  A
C679        C688   1.388       .  A
C680        F696   1.382       .  S
C680        F697   1.382       .  S
C680        F698   1.384       .  S
C682        F693   1.385       .  S
C682        F694   1.383       .  S
C682        F695   1.383       .  S
C684        C689   1.520   1_565  S
C684        C685   1.405       .  A
C685        C686   1.424       .  A
C685        H690   1.060   1_565  S
C686        C687   1.457       .  A
C687        C691   1.533       .  S
C687        C688   1.407       .  A
C688        H692   1.085       .  S
C689        F702   1.384       .  S
C689        F703   1.382   1_545  S
C689        F704   1.382       .  S
C691        F699   1.387       .  S
C691        F701   1.381       .  S
C705        C710   1.419       .  A
C705        H715   1.083       .  S
C706        C711   1.490       .  S
C706        C707   1.405       .  A
C707        C712   1.523       .  S
C707        C708   1.404       .  A
C708        C709   1.433   1_556  A
C708        H713   1.076   1_565  S
C710        C714   1.536       .  S
C711        C716   1.407       .  A
C712        F728   1.382   1_556  S
C712        F729   1.381       .  S
C712        F730   1.383       .  S
C714        F725   1.386       .  S
C714        F726   1.373       .  S
C714        F727   1.372       .  S
C716        C721   1.521       .  S
C716        C717   1.409       .  A
C717        C718   1.425   1_556  A
C717        H722   1.075       .  S
C719        C723   1.526       .  S
C719        C720   1.413       .  A
C720        H724   1.083       .  S
C721        F734   1.384       .  S
C721        F735   1.382       .  S
C721        F736   1.383       .  S
C723        F731   1.386       .  S
C723        F732   1.365       .  S
C723        F733   1.380   1_455  S
C737        C742   1.416       .  A
C737        H747   1.082       .  S
C738        C743   1.496       .  S
C738        C739   1.408       .  A
C739        C744   1.523       .  S
C739        C740   1.403       .  A
C740        C741   1.427       .  A
C740        H745   1.072   1_455  S
C742        C746   1.532       .  S
C743        C748   1.408       .  A
C744        F760   1.381   1_556  S
C744        F761   1.382       .  S
C744        F762   1.385       .  S
C746        F757   1.380       .  S
C746        F758   1.385       .  S
C746        F759   1.376       .  S
C748        C753   1.522       .  S
C748        C749   1.409       .  A
C749        C750   1.427   1_556  A
C749        H754   1.073       .  S
C751        C755   1.532       .  S
C751        C752   1.414       .  A
C752        H756   1.082       .  S
C753        F766   1.385       .  S
C753        F767   1.381       .  S
C753        F768   1.383       .  S
C755        F763   1.380       .  S
C755        F764   1.376       .  S
C755        F765   1.385       .  S
C769        C770   1.401   1_565  A
C769        C774   1.409       .  A
C769        H779   1.083       .  S
C770        C775   1.484       .  S
C770        C771   1.412       .  A
C771        C776   1.521       .  S
C771        C772   1.403       .  A
C772        C773   1.411   1_545  A
C772        H777   1.082       .  S
C773        C774   1.427       .  A
C774        C778   1.521       .  S
C775        C780   1.404       .  A
C775        C784   1.387       .  A
C776        F792   1.382       .  S
C776        F793   1.382       .  S
C776        F794   1.385       .  S
C778        F789   1.385       .  S
C778        F790   1.383       .  S
C778        F791   1.384       .  S
C780        C785   1.519       .  S
C780        C781   1.407       .  A
C781        C782   1.431       .  A
C781        H786   1.080       .  S
C782        C783   1.461       .  A
C783        C787   1.533       .  S
C783        C784   1.406       .  A
C784        H788   1.086       .  S
C785        F798   1.385       .  S
C785        F799   1.382   1_545  S
C785        F800   1.382       .  S
C787        F795   1.388   1_545  S
C787        F797   1.382   1_556  S
C801        C802   1.404       .  A
C801        C806   1.409       .  A
C801        H811   1.083       .  S
C802        C807   1.490       .  S
C802        C803   1.419   1_545  A
C803        C808   1.515       .  S
C803        C804   1.405       .  A
C804        C805   1.397   1_565  A
C804        H809   1.084       .  S
C805        C806   1.415       .  A
C806        C810   1.517       .  S
C807        C812   1.407   1_545  A
C807        C816   1.395       .  A
C808        F824   1.380   1_565  S
C808        F825   1.381       .  S
C808        F826   1.385       .  S
C810        F821   1.384       .  S
C810        F822   1.382       .  S
C810        F823   1.383   1_545  S
C812        C817   1.521       .  S
C812        C813   1.407       .  A
C813        C814   1.420   1_565  A
C813        H818   1.074       .  S
C814        C815   1.453       .  A
C815        C819   1.534       .  S
C815        C816   1.416       .  A
C816        H820   1.082       .  S
C817        F830   1.384       .  S
C817        F831   1.382       .  S
C817        F832   1.383       .  S
C819        F827   1.380       .  S
C819        F828   1.375       .  S
C819        F829   1.385       .  S
