geometry optimzed in LAMMPS
_audit_creation_date              2020-11-30 
_audit_creation_method            'lammps2cif' 
_symmetry_space_group_name_H-M    'P1' 
_symmetry_Int_Tables_number       1 
_symmetry_cell_setting            triclinic 
loop_ 
_symmetry_equiv_pos_as_xyz 
  x,y,z 
_cell_length_a                    35.02688678 
_cell_length_b                    35.172097348979264 
_cell_length_c                    44.06767435953403 
_cell_angle_alpha                 91.06025406555149 
_cell_angle_beta                  88.90428059190943 
_cell_angle_gamma                 90.04296494303327 
loop_ 
_atom_site_label 
_atom_site_type_symbol 
_atom_site_fract_x 
_atom_site_fract_y 
_atom_site_fract_z 
_atom_site_charge 
Zr1        Zr  0.74463675  0.11247151  0.43868251     2.17500
O2          O  0.72007952  0.15348995  0.39948675    -0.52200
O3          O  0.68310603  0.07886793  0.43730116    -0.75400
O4          O  0.75797654  0.08757247  0.38595191    -0.82200
O5          O  0.71773504  0.18704265  0.00351947    -0.83900
O6          O  0.81147063  0.05106677  0.38573147    -0.79500
O7          O  0.71228834  0.17348465  0.45122078    -0.91200
O8          O  0.68285164  0.03459470  0.47425225    -0.77100
O9          O  0.76195414  0.04779294  0.44601953    -0.86600
O10         O  0.72920881  0.10261650  0.99054751    -0.86300
O11         O  0.81297033  0.11116529  0.43100154    -0.73100
O12         O  0.77993457  0.15402285  0.47211738    -0.85200
Zr13       Zr  0.85057099  0.07232161  0.02286604     2.26400
Zr14       Zr  0.83000474  0.04616245  0.43855307     2.06300
Zr15       Zr  0.76553484  0.14304120  0.02329297     2.10000
Zr16       Zr  0.74562896  0.03815431  0.99867398     1.78800
O17         O  0.77996009  0.20755359  0.04051792    -0.94000
O18         O  0.74119713  0.97057357  0.47394271    -0.41800
O19         O  0.78231808  0.07802575  0.03175711    -0.78500
O20         O  0.81257965  0.03144384  0.99046493    -0.97100
O21         O  0.86734480  0.08625205  0.47144172    -0.90400
O22         O  0.83340384  0.13758331  0.01588980    -0.93300
C23         C  0.66692122  0.05276489  0.45306935     1.00500
C24         C  0.70510555  0.19479589  0.97701543     1.13400
C25         C  0.78406045  0.06734472  0.37204604     1.04200
O26         O  0.82038521  0.98386528  0.41480945    -0.95400
O27         O  0.87136614  0.99710403  0.45607675    -0.91200
O28         O  0.88182611  0.01045772  0.00724902    -0.84300
C29         C  0.88476236  0.98731916  0.48158764     1.10800
O30         O  0.84799918  0.20363196  0.43127153    -0.97400
Zr31       Zr  0.84773471  0.15072277  0.46613720     1.88900
O32         O  0.91194429  0.10591885  0.02667635    -0.74100
O33         O  0.88957369  0.05756101  0.41078839    -0.53300
O34         O  0.89685363  0.15375785  0.42644259    -0.98000
O35         O  0.84369249  0.21781116  0.98252086    -0.55200
O36         O  0.90666845  0.15703530  0.99639224    -0.74600
C37         C  0.92419968  0.13762523  0.01623929     0.97800
O38         O  0.87526135  0.03774076  0.06576657    -0.63400
O39         O  0.70919324  0.13698489  0.05621082    -0.58200
O40         O  0.83561699  0.09342172  0.07626320    -0.94900
O41         O  0.78599781  0.13522895  0.07601749    -0.93300
O42         O  0.69944601  0.03944445  0.04068823    -0.93700
O43         O  0.75494920  0.98844088  0.03554414    -0.92400
C44         C  0.81136130  0.11598908  0.09000644     1.16600
H45         H  0.70239857  0.10753424  0.99449274     0.32600
H46         H  0.81672332  0.00484435  0.99403743     0.43400
H47         H  0.84612117  0.15408033  0.03030407     0.36900
H48         H  0.81967002  0.11887213  0.41067460     0.33400
H49         H  0.71045786  0.96763717  0.98242334     0.25200
H50         H  0.91000047  0.05050111  0.42484640     0.31100
H51         H  0.89233101  0.13141195  0.41305213     0.37000
H52         H  0.68510649  0.06343631  0.03849158     0.31500
H53         H  0.71493176  0.11579276  0.06988376     0.30400
H54         H  0.77228617  0.20835527  0.06226103     0.32100
H55         H  0.85241778  0.21496449  0.50673312     0.31000
H56         H  0.76789050  0.00135234  0.05266542     0.35000
H57         H  0.86457623  0.01173245  0.06410287     0.27800
H58         H  0.70122955  0.13782316  0.38838013     0.32000
H59         H  0.82087050  0.20694146  0.42595877     0.34800
H60         H  0.70954287  0.15999091  0.06950322     0.27500
H61         H  0.90297378  0.03478628  0.06150391     0.40300
H62         H  0.79244272  0.97970195  0.41579416     0.30400
H63         H  0.76784278  0.96401722  0.46810815     0.38000
H64         H  0.81667461  0.22448152  0.97907791     0.29900
H65         H  0.89046597  0.03753414  0.39470191     0.29900
H66         H  0.74145496  0.15736985  0.38483632     0.30200
Zr67       Zr  0.84694985  0.06996243  0.27300094     2.17500
O68         O  0.88424483  0.06069519  0.31863362    -0.52200
O69         O  0.87534799  0.00521350  0.26461017    -0.75400
O70         O  0.81820136  0.06301829  0.32464282    -0.82200
O71         O  0.91015127  0.13494423  0.22779737    -0.83900
O72         O  0.75365357  0.06846137  0.32333090    -0.79500
O73         O  0.90795548  0.10340800  0.27248208    -0.91200
O74         O  0.84797489  0.98151362  0.22215728    -0.77100
O75         O  0.79336516  0.03308610  0.25775635    -0.86600
O76         O  0.85642758  0.05951383  0.21925164    -0.86300
O77         O  0.79299267  0.11190167  0.28294226    -0.73100
O78         O  0.84691639  0.13062957  0.24754846    -0.85200
Zr79       Zr  0.74779107  0.12001377  0.18915039     2.26400
Zr80       Zr  0.73967977  0.07373993  0.26877789     2.06300
Zr81       Zr  0.85675665  0.11964773  0.19425876     2.10000
Zr82       Zr  0.80208327  0.02374610  0.20396388     1.78800
O83         O  0.87903814  0.18156166  0.17741005    -0.94000
O84         O  0.76551148  0.96663549  0.21543113    -0.41800
O85         O  0.80348490  0.08262792  0.17869914    -0.78500
O86         O  0.74706277  0.05994692  0.21524065    -0.97100
O87         O  0.73922557  0.13297198  0.24253742    -0.90400
O88         O  0.80101879  0.15885710  0.20310175    -0.93300
C89         C  0.87148483  0.97938513  0.24364565     1.00500
C90         C  0.92352562  0.12669412  0.25401022     1.13400
C91         C  0.78500360  0.06517191  0.33792946     1.04200
O92         O  0.71576076  0.01086477  0.28164541    -0.95400
O93         O  0.68032446  0.07205039  0.24163968    -0.91200
O94         O  0.68515777  0.08989188  0.19227212    -0.84300
C95         C  0.66667653  0.07637496  0.21502012     1.10800
O96         O  0.83405650  0.19471483  0.29611165    -0.97400
Zr97       Zr  0.79241723  0.17069467  0.25646914     1.88900
O98         O  0.72000155  0.18388865  0.19577667    -0.74100
O99         O  0.68970314  0.10283627  0.30083350    -0.53300
O100        O  0.75721038  0.19286677  0.30164580    -0.98000
O101        O  0.82585320  0.22853701  0.24189578    -0.55200
O102        O  0.73765832  0.20826932  0.24142777    -0.74600
C103        C  0.71718908  0.20859615  0.21761510     0.97800
O104        O  0.70245138  0.12183797  0.14771721    -0.63400
O105        O  0.91105871  0.08983212  0.16793691    -0.58200
O106        O  0.77743738  0.12259054  0.13749370    -0.94900
O107        O  0.84187683  0.11621352  0.13924151    -0.93300
O108        O  0.83946855  0.00358347  0.15924519    -0.93700
O109        O  0.76487182  0.00265933  0.16065487    -0.92400
C110        C  0.81054326  0.11881417  0.12432555     1.16600
H111        H  0.88025145  0.04652023  0.21463958     0.32600
H112        H  0.72783510  0.04241587  0.20809907     0.43400
H113        H  0.80196197  0.18198171  0.19164174     0.36900
H114        H  0.79169660  0.12059617  0.30377106     0.33400
H115        H  0.77491957  0.95828971  0.23527602     0.25200
H116        H  0.70319245  0.12055575  0.31467163     0.31100
H117        H  0.73060487  0.18429468  0.29859401     0.37000
H118        H  0.86503830  0.99688953  0.16669148     0.31500
H119        H  0.90010587  0.06741817  0.15730636     0.30400
H120        H  0.89727726  0.17587101  0.16050382     0.32100
H121        H  0.80712949  0.24317735  0.23029407     0.31000
H122        H  0.76379583  0.02510028  0.14743667     0.35000
H123        H  0.70769798  0.14576918  0.13689716     0.27800
H124        H  0.89198026  0.08629153  0.32600847     0.32000
H125        H  0.84625382  0.17173524  0.30424714     0.34800
H126        H  0.91807216  0.10746887  0.15148451     0.27500
H127        H  0.70990528  0.10118662  0.13319826     0.40300
H128        H  0.69884678  0.00345335  0.26478999     0.30400
H129        H  0.73921729  0.97570156  0.21987815     0.38000
H130        H  0.84535614  0.22019537  0.22665557     0.29900
H131        H  0.67548076  0.11973196  0.28733303     0.29900
H132        H  0.90825208  0.04816806  0.31168872     0.30200
Zr133      Zr  0.55892503  0.37207018  0.41065352     2.17500
O134        O  0.56052079  0.42491156  0.37534530    -0.52200
O135        O  0.49303225  0.39886589  0.41701156    -0.75400
O136        O  0.56615919  0.35339010  0.35578270    -0.82200
O137        O  0.59574125  0.43143745  0.47390372    -0.83900
O138        O  0.56901449  0.28900093  0.35199742    -0.79500
O139        O  0.58726915  0.43301558  0.42291060    -0.91200
O140        O  0.45901749  0.34661346  0.42595924    -0.77100
O141        O  0.51903568  0.31712118  0.41273230    -0.86600
O142        O  0.53271013  0.37183023  0.46165529    -0.86300
O143        O  0.60319797  0.31969427  0.40252645    -0.73100
O144        O  0.61237746  0.36695555  0.44508009    -0.85200
Zr145      Zr  0.58572209  0.25795752  0.48861623     2.26400
Zr146      Zr  0.56216698  0.26533097  0.40345454     2.06300
Zr147      Zr  0.58509071  0.36740760  0.49525310     2.10000
Zr148      Zr  0.49415633  0.31601138  0.46397631     1.78800
O149        O  0.64752111  0.38184403  0.01837181    -0.94000
O150        O  0.43641124  0.27920944  0.45455387    -0.41800
O151        O  0.54540148  0.31217096  0.49831374    -0.78500
O152        O  0.53372553  0.26288185  0.45356154    -0.97100
O153        O  0.61300424  0.25833743  0.43863269    -0.90400
O154        O  0.62628557  0.31277274  0.48815935    -0.93300
C155        C  0.46113517  0.38226674  0.42332080     1.00500
C156        C  0.59664277  0.44863323  0.44809008     1.13400
C157        C  0.57050977  0.32211849  0.34016564     1.04200
O158        O  0.50362503  0.24521563  0.37891859    -0.95400
O159        O  0.55050596  0.20058978  0.41719038    -0.91200
O160        O  0.56224729  0.19772842  0.46782127    -0.84300
C161        C  0.55128573  0.18322338  0.44238483     1.10800
O162        O  0.69291235  0.35959626  0.41308232    -0.97400
Zr163      Zr  0.65365947  0.31198238  0.43824529     1.88900
O164        O  0.65113377  0.23152609  0.99409098    -0.74100
O165        O  0.60408782  0.22417846  0.37271007    -0.53300
O166        O  0.68897420  0.29031008  0.39302786    -0.98000
O167        O  0.70608433  0.33254135  0.47033908    -0.55200
O168        O  0.68237036  0.24967109  0.45012684    -0.74600
C169        C  0.67790859  0.22692170  0.47257913     0.97800
O170        O  0.57129383  0.20678448  0.02338775    -0.63400
O171        O  0.55790207  0.41976436  0.02426618    -0.58200
O172        O  0.57209582  0.27964141  0.04274387    -0.94900
O173        O  0.56985420  0.34431456  0.04536159    -0.93300
O174        O  0.46476797  0.36196452  0.49921216    -0.93700
O175        O  0.46572126  0.28030132  0.00340637    -0.92400
C176        C  0.56673237  0.31136039  0.05769174     1.16600
H177        H  0.51857785  0.39462340  0.46697050     0.32600
H178        H  0.51532119  0.24251514  0.45528587     0.43400
H179        H  0.64600944  0.31157925  0.00455328     0.36900
H180        H  0.61687007  0.32203040  0.38346136     0.33400
H181        H  0.41539308  0.29804024  0.45471940     0.25200
H182        H  0.61670613  0.20745231  0.38731163     0.31100
H183        H  0.67039781  0.27514423  0.38124342     0.37000
H184        H  0.47183009  0.35324492  0.51958575     0.31500
H185        H  0.53499551  0.40868187  0.03420692     0.30400
H186        H  0.64512885  0.37077544  0.03881966     0.32100
H187        H  0.71117155  0.31079659  0.48362764     0.31000
H188        H  0.47911225  0.27648979  0.51898868     0.35000
H189        H  0.58836214  0.20965833  0.04093784     0.27800
H190        H  0.53878926  0.42083893  0.36160541     0.32000
H191        H  0.67446983  0.37561444  0.40233611     0.34800
H192        H  0.57587286  0.42468869  0.04096509     0.27500
H193        H  0.54529635  0.21234857  0.03152248     0.40300
H194        H  0.48767184  0.23432528  0.39540094     0.30400
H195        H  0.43888339  0.27047798  0.43312030     0.38000
H196        H  0.69528251  0.35252075  0.48405621     0.29900
H197        H  0.58667137  0.20716493  0.36135117     0.29900
H198        H  0.58375030  0.42157742  0.36238553     0.30200
Zr199      Zr  0.55084834  0.36810356  0.15888478     2.17500
O200        O  0.54010719  0.41781619  0.12199572    -0.52200
O201        O  0.48407433  0.39364468  0.16718277    -0.75400
O202        O  0.55368015  0.34283583  0.10563460    -0.82200
O203        O  0.58970111  0.43535360  0.21283748    -0.83900
O204        O  0.55807758  0.27822417  0.10516903    -0.79500
O205        O  0.58849230  0.42635520  0.16184150    -0.91200
O206        O  0.45756071  0.36398731  0.20770491    -0.77100
O207        O  0.51429011  0.31248874  0.16974443    -0.86600
O208        O  0.53504802  0.37340481  0.21208931    -0.86300
O209        O  0.59433104  0.31509639  0.15031595    -0.73100
O210        O  0.60959255  0.36925682  0.18733825    -0.85200
Zr211      Zr  0.59616028  0.26470972  0.24090507     2.26400
Zr212      Zr  0.55637918  0.25952805  0.15950775     2.06300
Zr213      Zr  0.59295039  0.37464900  0.23987459     2.10000
Zr214      Zr  0.49962261  0.31711575  0.22306451     1.78800
O215        O  0.65711165  0.39657316  0.25152241    -0.94000
O216        O  0.44636746  0.28178761  0.20148595    -0.41800
O217        O  0.55687511  0.31913609  0.25003163    -0.78500
O218        O  0.53780042  0.26331822  0.21257664    -0.97100
O219        O  0.61382737  0.26041103  0.18845175    -0.90400
O220        O  0.63421925  0.32033161  0.23194630    -0.93300
C221        C  0.45688130  0.38861121  0.18715521     1.00500
C222        C  0.59675771  0.44621310  0.18542830     1.13400
C223        C  0.55789467  0.31049065  0.09142352     1.04200
O224        O  0.49535669  0.23881302  0.13947701    -0.95400
O225        O  0.54514907  0.19775266  0.18360916    -0.91200
O226        O  0.56969010  0.20073275  0.23126384    -0.84300
C227        C  0.55210972  0.18321067  0.20967911     1.10800
O228        O  0.67798567  0.36050927  0.14311364    -0.97400
Zr229      Zr  0.65122646  0.31560002  0.17933605     1.88900
O230        O  0.66213861  0.24071095  0.23722960    -0.74100
O231        O  0.59537903  0.21108341  0.13360791    -0.53300
O232        O  0.68003070  0.28785843  0.13329121    -0.98000
O233        O  0.70527350  0.34608868  0.20425613    -0.55200
O234        O  0.68713543  0.25888375  0.19196103    -0.74600
C235        C  0.68730538  0.23822498  0.21562251     0.97800
O236        O  0.60381988  0.22584599  0.28577515    -0.63400
O237        O  0.57119720  0.42456572  0.27523226    -0.58200
O238        O  0.58357750  0.29089584  0.29266602    -0.94900
O239        O  0.58197164  0.35562608  0.29332527    -0.93300
O240        O  0.47382746  0.34887460  0.26860843    -0.93700
O241        O  0.47575942  0.28041189  0.26592338    -0.92400
C242        C  0.57934866  0.32328182  0.30674248     1.16600
H243        H  0.52115737  0.39643119  0.21718678     0.32600
H244        H  0.52008677  0.24394159  0.21891269     0.43400
H245        H  0.65608707  0.32107844  0.24494338     0.36900
H246        H  0.60609668  0.31517777  0.13041059     0.33400
H247        H  0.45244865  0.25458836  0.20416148     0.25200
H248        H  0.58862150  0.21210370  0.11193515     0.31100
H249        H  0.70791098  0.29093197  0.13578067     0.37000
H250        H  0.47858211  0.37630942  0.26556995     0.31500
H251        H  0.58960647  0.44568628  0.27266896     0.30400
H252        H  0.65512261  0.40648336  0.27266464     0.32100
H253        H  0.72040525  0.35860068  0.18809006     0.31000
H254        H  0.46267193  0.25789144  0.25727077     0.35000
H255        H  0.57939797  0.21200955  0.28852790     0.27800
H256        H  0.51653920  0.41033597  0.11136060     0.32000
H257        H  0.65859163  0.38083683  0.14173350     0.34800
H258        H  0.54714368  0.43403467  0.26666253     0.27500
H259        H  0.62259889  0.20592320  0.27981459     0.40300
H260        H  0.50096863  0.21418864  0.12910135     0.30400
H261        H  0.42447056  0.28693776  0.21550454     0.38000
H262        H  0.72163924  0.32483697  0.21060653     0.29900
H263        H  0.62176495  0.22114069  0.13432248     0.29900
H264        H  0.56076696  0.41513510  0.10643796     0.30200
Zr265      Zr  0.44493366  0.97339644  0.41900743     2.17500
O266        O  0.40788951  0.98292961  0.37365779    -0.52200
O267        O  0.43873785  0.90649076  0.42603825    -0.75400
O268        O  0.48213140  0.92146384  0.39470408    -0.82200
O269        O  0.38060645  0.98995894  0.48740446    -0.83900
O270        O  0.54383108  0.94063915  0.39212895    -0.79500
O271        O  0.38055121  0.96574268  0.43918225    -0.91200
O272        O  0.47250933  0.89434541  0.46810821    -0.77100
O273        O  0.49858096  0.99420071  0.44469329    -0.86600
O274        O  0.44673512  0.96875908  0.47274297    -0.86300
O275        O  0.48783271  0.01676734  0.39425373    -0.73100
O276        O  0.42711568  0.03562777  0.43676560    -0.85200
Zr277      Zr  0.53996821  0.06351791  0.98332603     2.26400
Zr278      Zr  0.55134604  0.00417742  0.41205859     2.06300
Zr279      Zr  0.43589939  0.03259164  0.99142796     2.10000
Zr280      Zr  0.50958407  0.95081332  0.48279646     1.78800
O281        O  0.39579605  0.08790255  0.98345465    -0.94000
O282        O  0.54202819  0.90396340  0.45118355    -0.41800
O283        O  0.49993794  0.01345735  0.00382409    -0.78500
O284        O  0.55580205  0.99705661  0.46568641    -0.97100
O285        O  0.53706786  0.06650420  0.42846982    -0.90400
O286        O  0.47555081  0.07959045  0.46928336    -0.93300
C287        C  0.44970484  0.88457433  0.44685846     1.00500
C288        C  0.36595642  0.97004928  0.46599110     1.13400
C289        C  0.51773721  0.91553919  0.38897099     1.04200
O290        O  0.59727131  0.95256334  0.40741352    -0.95400
O291        O  0.61244420  0.03498160  0.42409522    -0.91200
O292        O  0.60600839  0.04967056  0.47417255    -0.84300
C293        C  0.62604263  0.04557472  0.44979536     1.10800
O294        O  0.41757973  0.08895311  0.38285748    -0.97400
Zr295      Zr  0.47245842  0.07974710  0.41499756     1.88900
O296        O  0.54646840  0.12673684  0.96536813    -0.74100
O297        O  0.56245878  0.03946738  0.36567100    -0.53300
O298        O  0.48963038  0.09358396  0.36256013    -0.98000
O299        O  0.43105929  0.13450771  0.42535351    -0.55200
O300        O  0.51535571  0.13335170  0.42094639    -0.74600
C301        C  0.53603307  0.14494806  0.44294287     0.97800
O302        O  0.58152642  0.10293935  0.01544935    -0.63400
O303        O  0.39604047  0.03518102  0.03767534    -0.58200
O304        O  0.50959830  0.08520279  0.03019246    -0.94900
O305        O  0.45855137  0.05194402  0.04167349    -0.93300
O306        O  0.48589897  0.93522267  0.03113283    -0.93700
O307        O  0.57153193  0.93491055  0.00835586    -0.92400
C308        C  0.49282993  0.06197374  0.04755037     1.16600
H309        H  0.43092649  0.94894020  0.48104705     0.32600
H310        H  0.58059459  0.98850175  0.47124099     0.43400
H311        H  0.47017983  0.10492998  0.97907179     0.36900
H312        H  0.48532272  0.01472399  0.37249411     0.33400
H313        H  0.56894389  0.91250218  0.45095555     0.25200
H314        H  0.53771811  0.04320040  0.35590262     0.31100
H315        H  0.48294046  0.12068409  0.36008817     0.37000
H316        H  0.46049412  0.92438553  0.02668410     0.31500
H317        H  0.37532996  0.05349691  0.03382442     0.30400
H318        H  0.36998502  0.07728928  0.98013994     0.32100
H319        H  0.44473122  0.15654101  0.41665614     0.31000
H320        H  0.57488841  0.90737348  0.00407936     0.35000
H321        H  0.60123552  0.11440516  0.00204281     0.27800
H322        H  0.38880749  0.00250379  0.37973952     0.32000
H323        H  0.41621600  0.06542758  0.37026929     0.34800
H324        H  0.38310666  0.01029434  0.03958981     0.27500
H325        H  0.56609776  0.12505666  0.02256570     0.40300
H326        H  0.61589057  0.95742710  0.42365273     0.30400
H327        H  0.54231837  0.88043530  0.46319759     0.38000
H328        H  0.43132206  0.13922665  0.44753149     0.29900
H329        H  0.57052712  0.06519612  0.37238195     0.29900
H330        H  0.39281891  0.95924771  0.37140785     0.30200
Zr331      Zr  0.45338170  0.97350300  0.18405261     2.17500
O332        O  0.40736667  0.98591955  0.14482747    -0.52200
O333        O  0.44105388  0.90794860  0.18283265    -0.75400
O334        O  0.49105285  0.93061249  0.14772388    -0.82200
O335        O  0.39635066  0.97457646  0.25981170    -0.83900
O336        O  0.54958644  0.95776085  0.14771011    -0.79500
O337        O  0.39295038  0.96246927  0.20887723    -0.91200
O338        O  0.49284336  0.88869583  0.20851815    -0.77100
O339        O  0.51849572  0.96756747  0.18574642    -0.86600
O340        O  0.46781501  0.95196645  0.23383789    -0.86300
O341        O  0.48304021  0.03194810  0.16828763    -0.73100
O342        O  0.43713183  0.02172536  0.22163599    -0.85200
Zr343      Zr  0.54590519  0.05690091  0.25095008     2.26400
Zr344      Zr  0.55161468  0.02193181  0.17132997     2.06300
Zr345      Zr  0.45929305  0.00198983  0.27088261     2.10000
Zr346      Zr  0.53399518  0.93983864  0.22972034     1.78800
O347        O  0.43387678  0.04581703  0.30959897    -0.94000
O348        O  0.59630630  0.92479914  0.20635092    -0.41800
O349        O  0.52193335  0.99470580  0.25943071    -0.78500
O350        O  0.56768035  0.00122577  0.22112321    -0.97100
O351        O  0.52672629  0.06674743  0.20362682    -0.90400
O352        O  0.47892386  0.06453869  0.25619314    -0.93300
C353        C  0.46143994  0.88248935  0.19443995     1.00500
C354        C  0.37866675  0.96334147  0.23585256     1.13400
C355        C  0.52716380  0.92978534  0.14042944     1.04200
O356        O  0.59977241  0.00745112  0.13206384    -0.95400
O357        O  0.61278525  0.05263668  0.18700701    -0.91200
O358        O  0.60943824  0.06548239  0.23757922    -0.84300
C359        C  0.62712703  0.06447542  0.21230060     1.10800
O360        O  0.39751886  0.08508521  0.18911178    -0.97400
Zr361      Zr  0.46350922  0.08069991  0.20487721     1.88900
O362        O  0.55379909  0.12312795  0.23412265    -0.74100
O363        O  0.54073613  0.06321310  0.12851108    -0.53300
O364        O  0.44894022  0.10771271  0.15592613    -0.98000
O365        O  0.43165763  0.12682213  0.23876285    -0.55200
O366        O  0.50462199  0.13630115  0.20322792    -0.74600
C367        C  0.53603554  0.14518617  0.21608183     0.97800
O368        O  0.54550109  0.10225861  0.29343263    -0.63400
O369        O  0.43592000  0.96089954  0.31103589    -0.58200
O370        O  0.56997914  0.02966905  0.29656284    -0.94900
O371        O  0.52278612  0.98588759  0.29833307    -0.93300
O372        O  0.52026812  0.91597426  0.28016026    -0.93700
O373        O  0.56546303  0.87921262  0.23741570    -0.92400
C374        C  0.55765144  0.99748760  0.30518858     1.16600
H375        H  0.45313454  0.93031301  0.24035817     0.32600
H376        H  0.59475727  0.99736142  0.22315861     0.43400
H377        H  0.47259745  0.08401344  0.27121566     0.36900
H378        H  0.47563651  0.03803093  0.14800377     0.33400
H379        H  0.59929026  0.94227231  0.18912902     0.25200
H380        H  0.56637673  0.07208037  0.12198669     0.31100
H381        H  0.44671290  0.13542322  0.15992897     0.37000
H382        H  0.49883450  0.89807976  0.27696955     0.31500
H383        H  0.43719598  0.93489443  0.30206748     0.30400
H384        H  0.40601473  0.04603231  0.30622586     0.32100
H385        H  0.42042484  0.14563065  0.22508200     0.31000
H386        H  0.55901444  0.86270908  0.21978868     0.35000
H387        H  0.53066589  0.09000871  0.30988842     0.27800
H388        H  0.41518587  0.96918202  0.12752290     0.32000
H389        H  0.38232626  0.07330464  0.20560940     0.34800
H390        H  0.45626996  0.96156661  0.32630763     0.27500
H391        H  0.57213154  0.10318031  0.30057262     0.40300
H392        H  0.62178196  0.02449313  0.13557234     0.30400
H393        H  0.61602305  0.93312952  0.22081906     0.38000
H394        H  0.45228788  0.14094872  0.24909322     0.29900
H395        H  0.52828627  0.08618963  0.13741254     0.29900
H396        H  0.41251740  0.01218778  0.13825455     0.30200
Zr397      Zr  0.43770372  0.65678684  0.39640667     2.17500
O398        O  0.44449091  0.61373654  0.35255224    -0.52200
O399        O  0.50319567  0.62932695  0.40028610    -0.75400
O400        O  0.43076951  0.68238513  0.34433624    -0.82200
O401        O  0.39136821  0.59823796  0.45589755    -0.83900
O402        O  0.42749059  0.74710825  0.34494215    -0.79500
O403        O  0.40295194  0.59680358  0.40494048    -0.91200
O404        O  0.53060406  0.68461133  0.40955736    -0.77100
O405        O  0.47410330  0.71410371  0.40232968    -0.86600
O406        O  0.46306102  0.65551376  0.44700935    -0.86300
O407        O  0.39262195  0.70871521  0.39283027    -0.73100
O408        O  0.38455014  0.65814427  0.43228685    -0.85200
Zr409      Zr  0.40337158  0.76574069  0.48333272     2.26400
Zr410      Zr  0.42982125  0.76568546  0.39843192     2.06300
Zr411      Zr  0.41006642  0.65673532  0.48199435     2.10000
Zr412      Zr  0.49870844  0.71306872  0.45263707     1.78800
O413        O  0.35593826  0.63170491  0.51084598    -0.94000
O414        O  0.55162117  0.75611843  0.44118116    -0.41800
O415        O  0.44649210  0.71356785  0.48791429    -0.78500
O416        O  0.45726149  0.76582399  0.44810167    -0.97100
O417        O  0.37728867  0.76647169  0.43390342    -0.90400
O418        O  0.36608349  0.70900671  0.47879836    -0.93300
C419        C  0.53295459  0.64882670  0.40702662     1.00500
C420        C  0.38939686  0.58220618  0.42943117     1.13400
C421        C  0.42671647  0.71469614  0.33101091     1.04200
O422        O  0.48788593  0.79343772  0.37722787    -0.95400
O423        O  0.43440725  0.83022269  0.41847756    -0.91200
O424        O  0.42904313  0.82814871  0.47007895    -0.84300
C425        C  0.43636310  0.84537268  0.44514315     1.10800
O426        O  0.30251131  0.66033510  0.40498050    -0.97400
Zr427      Zr  0.34078680  0.70993695  0.42888869     1.88900
O428        O  0.33718549  0.79076601  0.48494115    -0.74100
O429        O  0.38481594  0.80383578  0.37049212    -0.53300
O430        O  0.31160819  0.73164865  0.38252856    -0.98000
O431        O  0.28809135  0.68327751  0.45856983    -0.55200
O432        O  0.30684633  0.76766779  0.44348192    -0.74600
C433        C  0.30946598  0.79086960  0.46605796     0.97800
O434        O  0.40135533  0.80981342  0.52684227    -0.63400
O435        O  0.44984700  0.60764100  0.50360512    -0.58200
O436        O  0.41785717  0.74221424  0.53444887    -0.94900
O437        O  0.42191559  0.67762064  0.53424293    -0.93300
O438        O  0.52669292  0.66890185  0.48787878    -0.93700
O439        O  0.53764987  0.74440314  0.49087680    -0.92400
C440        C  0.42929039  0.70910727  0.04736664     1.16600
H441        H  0.47756653  0.63284690  0.45060926     0.32600
H442        H  0.47486019  0.78653112  0.45096618     0.43400
H443        H  0.34641314  0.70835139  0.49443582     0.36900
H444        H  0.37943204  0.70777802  0.37389974     0.33400
H445        H  0.56649066  0.74388621  0.42437333     0.25200
H446        H  0.36694105  0.81449656  0.38610854     0.31100
H447        H  0.28389081  0.73265376  0.38731528     0.37000
H448        H  0.53157986  0.64501728  0.47630840     0.31500
H449        H  0.46977016  0.62159898  0.51491037     0.30400
H450        H  0.34970430  0.65145090  0.52644822     0.32100
H451        H  0.28051744  0.70351520  0.47338838     0.31000
H452        H  0.51923400  0.75957702  0.50339092     0.35000
H453        H  0.42791946  0.81892885  0.52923500     0.27800
H454        H  0.41814321  0.60665658  0.34692744     0.32000
H455        H  0.32046838  0.63899859  0.40106121     0.34800
H456        H  0.43351451  0.59606638  0.51953286     0.27500
H457        H  0.38707175  0.83232699  0.52008908     0.40300
H458        H  0.50019191  0.77268770  0.36513776     0.30400
H459        H  0.53977678  0.77851117  0.43186237     0.38000
H460        H  0.29974763  0.66325510  0.47088659     0.29900
H461        H  0.39977919  0.82596300  0.36338805     0.29900
H462        H  0.45561246  0.59010989  0.36047002     0.30200
Zr463      Zr  0.44073291  0.65700567  0.14867386     2.17500
O464        O  0.45179647  0.61045957  0.10767130    -0.52200
O465        O  0.50425052  0.62895744  0.15701860    -0.75400
O466        O  0.43877535  0.67808180  0.09496069    -0.82200
O467        O  0.39176877  0.59933816  0.20819822    -0.83900
O468        O  0.43772267  0.74269367  0.09407213    -0.79500
O469        O  0.40341153  0.59958942  0.15713784    -0.91200
O470        O  0.53592299  0.68195631  0.16828346    -0.77100
O471        O  0.48025425  0.71150803  0.15591599    -0.86600
O472        O  0.46069428  0.65577168  0.20087269    -0.86300
O473        O  0.39820972  0.70999649  0.14106920    -0.73100
O474        O  0.38457217  0.66072730  0.18133391    -0.85200
Zr475      Zr  0.40568646  0.76876371  0.23102673     2.26400
Zr476      Zr  0.43919428  0.76396120  0.14712204     2.06300
Zr477      Zr  0.40490129  0.66027664  0.23264819     2.10000
Zr478      Zr  0.49926209  0.71096216  0.20794996     1.78800
O479        O  0.34246846  0.64450412  0.25420496    -0.94000
O480        O  0.55478824  0.75220862  0.20225071    -0.41800
O481        O  0.44441434  0.71463824  0.24002274    -0.78500
O482        O  0.46180093  0.76489550  0.19836341    -0.97100
O483        O  0.38408973  0.76806890  0.17997184    -0.90400
O484        O  0.36476097  0.71476357  0.22603044    -0.93300
C485        C  0.53474734  0.64622341  0.16514976     1.00500
C486        C  0.38975360  0.58460726  0.18129176     1.13400
C487        C  0.43664698  0.70991217  0.08072337     1.04200
O488        O  0.50338779  0.77561155  0.12745960    -0.95400
O489        O  0.44762776  0.82844174  0.16562277    -0.91200
O490        O  0.43587541  0.82850805  0.21683050    -0.84300
C491        C  0.44723788  0.84415384  0.19210478     1.10800
O492        O  0.31087229  0.66740764  0.14309737    -0.97400
Zr493      Zr  0.34379287  0.71413608  0.17475199     1.88900
O494        O  0.34141690  0.79661231  0.22922106    -0.74100
O495        O  0.40568089  0.81063269  0.11728612    -0.53300
O496        O  0.31050989  0.74080316  0.13196028    -0.98000
O497        O  0.29216739  0.68410362  0.20376280    -0.55200
O498        O  0.30995244  0.77199141  0.18879153    -0.74600
C499        C  0.31372307  0.79635829  0.21043065     0.97800
O500        O  0.40193032  0.82048401  0.26871048    -0.63400
O501        O  0.43614203  0.61090793  0.26137836    -0.58200
O502        O  0.41646731  0.74620609  0.28368825    -0.94900
O503        O  0.41417845  0.68160347  0.28489132    -0.93300
O504        O  0.52424029  0.66228132  0.24074721    -0.93700
O505        O  0.52968580  0.74323825  0.25051781    -0.92400
C506        C  0.41860453  0.71427736  0.29785976     1.16600
H507        H  0.47377005  0.63260767  0.20584522     0.32600
H508        H  0.48083888  0.78434328  0.20162450     0.43400
H509        H  0.34418461  0.71625814  0.24088502     0.36900
H510        H  0.38651978  0.70868254  0.12152068     0.33400
H511        H  0.57641267  0.73480234  0.19766541     0.25200
H512        H  0.42224888  0.81503585  0.09923571     0.31100
H513        H  0.32631055  0.73448510  0.11370877     0.37000
H514        H  0.51294064  0.66822295  0.26104718     0.31500
H515        H  0.45795807  0.62362694  0.27129864     0.30400
H516        H  0.34373276  0.61687978  0.25783815     0.32100
H517        H  0.26971718  0.68481187  0.19047359     0.31000
H518        H  0.51159939  0.76368939  0.25677020     0.35000
H519        H  0.38032652  0.81396427  0.28247456     0.27800
H520        H  0.42616571  0.60228758  0.10102278     0.32000
H521        H  0.32260446  0.64268720  0.14791302     0.34800
H522        H  0.41807601  0.60506337  0.27821778     0.27500
H523        H  0.42500419  0.81830855  0.28119963     0.40300
H524        H  0.51503016  0.79271896  0.14278737     0.30400
H525        H  0.55079141  0.76574895  0.18309902     0.38000
H526        H  0.28552507  0.70224873  0.22045881     0.29900
H527        H  0.38320641  0.79685682  0.10933528     0.29900
H528        H  0.46258185  0.58785461  0.11746693     0.30200
Zr529      Zr  0.14817770  0.95404910  0.02869332     2.17500
O530        O  0.10590489  0.96447282  0.07289737    -0.52200
O531        O  0.12116682  0.02003918  0.02357375    -0.75400
O532        O  0.17495274  0.94927186  0.08107674    -0.82200
O533        O  0.08439885  0.89706244  0.47704413    -0.83900
O534        O  0.23983539  0.94518233  0.07964149    -0.79500
O535        O  0.08602806  0.92264772  0.02330270    -0.91200
O536        O  0.15468862  0.04941233  0.98617363    -0.77100
O537        O  0.20486105  0.98989636  0.01904723    -0.86600
O538        O  0.14203027  0.97105142  0.47736811    -0.86300
O539        O  0.20016421  0.90914527  0.03371496    -0.73100
O540        O  0.14608103  0.89734355  0.49825480    -0.85200
Zr541      Zr  0.24984411  0.90874845  0.44371350     2.26400
Zr542      Zr  0.25689562  0.94598210  0.02522393     2.06300
Zr543      Zr  0.14078924  0.91459074  0.44629413     2.10000
Zr544      Zr  0.19893914  0.00588540  0.46648858     1.78800
O545        O  0.11826071  0.85944354  0.41758257    -0.94000
O546        O  0.22897223  0.06412262  0.48501581    -0.41800
O547        O  0.19716134  0.94972138  0.43668778    -0.78500
O548        O  0.25170982  0.96665515  0.47451042    -0.97100
O549        O  0.25445500  0.89113178  0.49572876    -0.90400
O550        O  0.19361117  0.87165837  0.45241816    -0.93300
C551        C  0.12768100  0.04837213  0.00575115     1.00500
C552        C  0.06969373  0.90209402  0.50391332     1.13400
C553        C  0.20763186  0.94536651  0.09426593     1.04200
O554        O  0.28274488  0.00420444  0.04754169    -0.95400
O555        O  0.31900048  0.95315685  0.99915192    -0.91200
O556        O  0.31179694  0.93732767  0.45036489    -0.84300
C557        C  0.32990986  0.95159091  0.47284814     1.10800
O558        O  0.15130135  0.82367235  0.03424964    -0.97400
Zr559      Zr  0.19845066  0.85458088  0.50457650     1.88900
O560        O  0.27631835  0.84421335  0.44768364    -0.74100
O561        O  0.30092626  0.90570093  0.05216022    -0.53300
O562        O  0.22363264  0.82557985  0.04805548    -0.98000
O563        O  0.17266837  0.79790228  0.47972907    -0.55200
O564        O  0.25816691  0.82103835  0.49330427    -0.74600
C565        C  0.27951104  0.82045447  0.46934956     0.97800
O566        O  0.28905376  0.89350365  0.39870963    -0.63400
O567        O  0.08777492  0.94974283  0.42510695    -0.58200
O568        O  0.22646291  0.92507368  0.39257824    -0.94900
O569        O  0.16158602  0.92846203  0.39309921    -0.93300
O570        O  0.17235022  0.01927554  0.41711318    -0.93700
O571        O  0.24497156  0.03807076  0.43367689    -0.92400
C572        C  0.19444018  0.93108543  0.37920964     1.16600
H573        H  0.11869808  0.98450364  0.47347212     0.32600
H574        H  0.27073688  0.98485538  0.46903587     0.43400
H575        H  0.19270488  0.85015557  0.43854491     0.36900
H576        H  0.19979740  0.89736666  0.05323708     0.33400
H577        H  0.21237167  0.08487732  0.47813718     0.25200
H578        H  0.31701460  0.89329229  0.03613733     0.31100
H579        H  0.22464967  0.79786545  0.04375204     0.37000
H580        H  0.14744598  0.03162209  0.42159931     0.31500
H581        H  0.06962621  0.95454313  0.44225300     0.30400
H582        H  0.11108853  0.84065460  0.43312389     0.32100
H583        H  0.19191381  0.79037874  0.46400425     0.31000
H584        H  0.25127499  0.01923316  0.41736657     0.35000
H585        H  0.31441336  0.88632438  0.40633453     0.27800
H586        H  0.08032128  0.97002706  0.06491122     0.32000
H587        H  0.13425960  0.84476852  0.04098849     0.34800
H588        H  0.09840054  0.97509819  0.42040013     0.27500
H589        H  0.27843410  0.86943473  0.39042896     0.40300
H590        H  0.30582474  0.01017007  0.03522094     0.30400
H591        H  0.24486006  0.05270558  0.00803989     0.38000
H592        H  0.15046555  0.80689231  0.46832247     0.29900
H593        H  0.31829435  0.92374341  0.06252064     0.29900
H594        H  0.11406087  0.98911326  0.08189688     0.30200
Zr595      Zr  0.14667284  0.95666434  0.27719880     2.17500
O596        O  0.09544413  0.97055779  0.31407856    -0.52200
O597        O  0.12025667  0.02308338  0.27144628    -0.75400
O598        O  0.16519531  0.94695709  0.33140689    -0.82200
O599        O  0.09193480  0.90691693  0.21734755    -0.83900
O600        O  0.22995269  0.94344463  0.33353576    -0.79500
O601        O  0.08656293  0.92325750  0.26737540    -0.91200
O602        O  0.15452712  0.05253610  0.23451679    -0.77100
O603        O  0.20358225  0.99378192  0.27317068    -0.86600
O604        O  0.14982683  0.97752671  0.22572522    -0.86300
O605        O  0.19863599  0.91200885  0.28412612    -0.73100
O606        O  0.15019403  0.90102162  0.24362448    -0.85200
Zr607      Zr  0.26092804  0.91961739  0.19550988     2.26400
Zr608      Zr  0.25503323  0.95040997  0.28127845     2.06300
Zr609      Zr  0.15238704  0.92329141  0.19273241     2.10000
Zr610      Zr  0.20712635  0.01411863  0.22154689     1.78800
O611        O  0.12864019  0.86895421  0.16345028    -0.94000
O612        O  0.23278113  0.06652148  0.25196745    -0.41800
O613        O  0.20867122  0.96118819  0.18717260    -0.78500
O614        O  0.25970572  0.97410386  0.23027757    -0.97100
O615        O  0.25880554  0.89693624  0.24652069    -0.90400
O616        O  0.20531565  0.88083659  0.19915102    -0.93300
C617        C  0.12670744  0.05117537  0.25328182     1.00500
C618        C  0.07362206  0.90789032  0.24301000     1.13400
C619        C  0.19643775  0.94189047  0.34619097     1.04200
O620        O  0.27092518  0.01427357  0.29916789    -0.95400
O621        O  0.32189927  0.95207505  0.26455785    -0.91200
O622        O  0.32210505  0.94366027  0.21306808    -0.84300
C623        C  0.33855146  0.95168063  0.23830205     1.10800
O624        O  0.16162437  0.82407068  0.28461284    -0.97400
Zr625      Zr  0.20314821  0.85886700  0.24992736     1.88900
O626        O  0.28631248  0.85449634  0.19552847    -0.74100
O627        O  0.29550890  0.92134197  0.31883823    -0.53300
O628        O  0.22897749  0.82378825  0.29205976    -0.98000
O629        O  0.17028656  0.81249716  0.21793461    -0.55200
O630        O  0.25976565  0.82313972  0.23513862    -0.74600
C631        C  0.28464582  0.82640839  0.21377246     0.97800
O632        O  0.30966928  0.91046862  0.15557596    -0.63400
O633        O  0.10509767  0.96144570  0.16712301    -0.58200
O634        O  0.23946319  0.93445923  0.14239538    -0.94900
O635        O  0.17453906  0.93373575  0.14080722    -0.93300
O636        O  0.18427002  0.04151330  0.17486727    -0.93700
O637        O  0.25651951  0.05018804  0.19496330    -0.92400
C638        C  0.20748949  0.93762745  0.12790546     1.16600
H639        H  0.12711713  0.99109734  0.22013284     0.32600
H640        H  0.28068257  0.99161934  0.22804895     0.43400
H641        H  0.20653689  0.86046835  0.18415170     0.36900
H642        H  0.19611629  0.89817071  0.30270540     0.33400
H643        H  0.22419938  0.08982678  0.24184028     0.25200
H644        H  0.31064502  0.90176393  0.30755610     0.31100
H645        H  0.25460044  0.83488369  0.29534604     0.37000
H646        H  0.16456983  0.02349375  0.16760297     0.31500
H647        H  0.09558514  0.94458298  0.15068296     0.30400
H648        H  0.14640460  0.84769194  0.16683853     0.32100
H649        H  0.14742407  0.80450365  0.22972573     0.31000
H650        H  0.26095745  0.03623376  0.17549784     0.35000
H651        H  0.31685699  0.93635507  0.14910038     0.27800
H652        H  0.10538438  0.99106057  0.32746602     0.32000
H653        H  0.14120396  0.84237436  0.29046975     0.34800
H654        H  0.08321349  0.96394508  0.18156851     0.27500
H655        H  0.33261544  0.90082115  0.16573649     0.40300
H656        H  0.29556265  0.02020719  0.28892715     0.30400
H657        H  0.21796002  0.06645403  0.27132269     0.38000
H658        H  0.18715785  0.78991830  0.21733463     0.29900
H659        H  0.31418940  0.94125827  0.32453498     0.29900
H660        H  0.09321554  0.94801440  0.32712955     0.30200
Zr661      Zr  0.93665889  0.87384043  0.01864416     2.17500
O662        O  0.93026370  0.92458870  0.05705979    -0.52200
O663        O  0.00323967  0.89914642  0.01526956    -0.75400
O664        O  0.92968751  0.85152265  0.07216056    -0.82200
O665        O  0.90133788  0.93020352  0.45567952    -0.83900
O666        O  0.92769369  0.78690957  0.07302400    -0.79500
O667        O  0.91165045  0.93652149  0.00694340    -0.91200
O668        O  0.03620288  0.84656647  0.00332488    -0.77100
O669        O  0.97693886  0.81927300  0.01388043    -0.86600
O670        O  0.96267555  0.87131815  0.46838766    -0.86300
O671        O  0.89395511  0.82038940  0.02455506    -0.73100
O672        O  0.88385891  0.86540579  0.48434192    -0.85200
Zr673      Zr  0.91215146  0.75722655  0.43578879     2.26400
Zr674      Zr  0.93505531  0.76600013  0.02057950     2.06300
Zr675      Zr  0.91063612  0.86605860  0.43413272     2.10000
Zr676      Zr  0.00290647  0.81677456  0.46393426     1.78800
O677        O  0.84837120  0.88078270  0.41364246    -0.94000
O678        O  0.05242369  0.77079630  0.47551459    -0.41800
O679        O  0.95198419  0.81209715  0.42897627    -0.78500
O680        O  0.96466773  0.76176146  0.47045988    -0.97100
O681        O  0.88552332  0.75689619  0.48601844    -0.90400
O682        O  0.87031116  0.81097375  0.43937000    -0.93300
C683        C  0.03486426  0.88206287  0.00842520     1.00500
C684        C  0.90086635  0.94813078  0.48151375     1.13400
C685        C  0.92566425  0.81964002  0.08622564     1.04200
O686        O  0.99294484  0.74804532  0.04661562    -0.95400
O687        O  0.94591189  0.70118597  0.00426628    -0.91200
O688        O  0.93454229  0.69616256  0.45493501    -0.84300
C689        C  0.94467567  0.68157869  0.48018091     1.10800
O690        O  0.80388351  0.85935982  0.01944581    -0.97400
Zr691      Zr  0.84409753  0.80994132  0.48966093     1.88900
O692        O  0.84811697  0.72790289  0.43325578    -0.74100
O693        O  0.89230906  0.72413864  0.04883193    -0.53300
O694        O  0.81318857  0.79034860  0.03617431    -0.98000
O695        O  0.79173160  0.83207313  0.45898105    -0.55200
O696        O  0.81564390  0.74885136  0.47530053    -0.74600
C697        C  0.82032525  0.72555210  0.45274173     0.97800
O698        O  0.92166041  0.71080424  0.39441541    -0.63400
O699        O  0.93774765  0.91790150  0.40463852    -0.58200
O700        O  0.92493556  0.77834919  0.38278217    -0.94900
O701        O  0.92570234  0.84305245  0.38224531    -0.93300
O702        O  0.03329987  0.86657494  0.43427774    -0.93700
O703        O  0.04440993  0.79223845  0.42325182    -0.92400
C704        C  0.92893852  0.81029502  0.36882002     1.16600
H705        H  0.97638362  0.89461232  0.46449275     0.32600
H706        H  0.98269622  0.74118102  0.46773021     0.43400
H707        H  0.85095306  0.80928261  0.42405326     0.36900
H708        H  0.88014858  0.82186401  0.04363531     0.33400
H709        H  0.07623811  0.78586428  0.47703343     0.25200
H710        H  0.87114098  0.74077298  0.05614141     0.31100
H711        H  0.78952028  0.77741579  0.02968195     0.37000
H712        H  0.01587702  0.87074886  0.41722470     0.31500
H713        H  0.95917075  0.90674854  0.39252038     0.30400
H714        H  0.85397312  0.89108730  0.39328980     0.32100
H715        H  0.79270410  0.86016818  0.46067750     0.31000
H716        H  0.03193378  0.79973132  0.40429575     0.35000
H717        H  0.94939512  0.70540191  0.39377701     0.27800
H718        H  0.95129378  0.92086461  0.07141301     0.32000
H719        H  0.82057481  0.88179110  0.02248773     0.34800
H720        H  0.91811993  0.92400730  0.38961010     0.27500
H721        H  0.90958647  0.68692560  0.40131593     0.40300
H722        H  0.00378589  0.72634574  0.03471667     0.30400
H723        H  0.04713044  0.76337064  0.99090431     0.38000
H724        H  0.76836693  0.82489374  0.47052577     0.29900
H725        H  0.88045724  0.70740124  0.03334103     0.29900
H726        H  0.90651830  0.91921213  0.06878754     0.30200
Zr727      Zr  0.94279536  0.86719838  0.26879034     2.17500
O728        O  0.95767208  0.91201566  0.30989681    -0.52200
O729        O  0.00992681  0.89164087  0.26246859    -0.75400
O730        O  0.93919002  0.84218147  0.32148352    -0.82200
O731        O  0.89564179  0.92985682  0.21409666    -0.83900
O732        O  0.93607828  0.77748265  0.32068034    -0.79500
O733        O  0.90728392  0.92738107  0.26453886    -0.91200
O734        O  0.03763516  0.86055979  0.22223628    -0.77100
O735        O  0.97827543  0.81055271  0.25806023    -0.86600
O736        O  0.96117029  0.86953124  0.21604857    -0.86300
O737        O  0.89778842  0.81537029  0.27617069    -0.73100
O738        O  0.88544400  0.86818075  0.23887036    -0.85200
Zr739      Zr  0.89908009  0.76115425  0.18400739     2.26400
Zr740      Zr  0.93463132  0.75911810  0.26641784     2.06300
Zr741      Zr  0.90458311  0.87008710  0.18665057     2.10000
Zr742      Zr  0.99615395  0.81245856  0.20543454     1.78800
O743        O  0.84314470  0.89044204  0.16762682    -0.94000
O744        O  0.05318036  0.78206601  0.22470854    -0.41800
O745        O  0.94070853  0.81394635  0.17580415    -0.78500
O746        O  0.95588410  0.75968639  0.21437937    -0.97100
O747        O  0.87892203  0.76000594  0.23606102    -0.90400
O748        O  0.86151190  0.81729375  0.19293254    -0.93300
C749        C  0.03788212  0.88567729  0.24328823     1.00500
C750        C  0.89435242  0.94414204  0.24117834     1.13400
C751        C  0.93614980  0.80982178  0.33500482     1.04200
O752        O  0.99915050  0.74139159  0.27873525    -0.95400
O753        O  0.93673508  0.69537887  0.24331168    -0.91200
O754        O  0.92476862  0.69743388  0.19262922    -0.84300
C755        C  0.93462775  0.67986699  0.21661243     1.10800
O756        O  0.81383627  0.85756809  0.28418888    -0.97400
Zr757      Zr  0.84246030  0.81594218  0.24520481     1.88900
O758        O  0.83291487  0.73683547  0.18772105    -0.74100
O759        O  0.89872587  0.71306282  0.29633045    -0.53300
O760        O  0.80524993  0.78960371  0.28707419    -0.98000
O761        O  0.79442906  0.85153919  0.21813365    -0.55200
O762        O  0.80581930  0.76006576  0.23141416    -0.74600
C763        C  0.80655952  0.73707569  0.20857647     0.97800
O764        O  0.89256278  0.71485794  0.14240253    -0.63400
O765        O  0.93415463  0.92141003  0.15778624    -0.58200
O766        O  0.91159679  0.78774543  0.13265107    -0.94900
O767        O  0.91422212  0.85231568  0.13334602    -0.93300
O768        O  0.01847395  0.84347168  0.15944155    -0.93700
O769        O  0.02488997  0.76661897  0.16970845    -0.92400
C770        C  0.91642548  0.82003602  0.11936844     1.16600
H771        H  0.97535264  0.89229282  0.21134582     0.32600
H772        H  0.97297389  0.73887185  0.20956554     0.43400
H773        H  0.84024679  0.81793828  0.17928080     0.36900
H774        H  0.88615210  0.81564113  0.29614503     0.33400
H775        H  0.05582259  0.79220076  0.24567548     0.25200
H776        H  0.88512144  0.72805784  0.31238994     0.31100
H777        H  0.82407805  0.77579805  0.29921307     0.37000
H778        H  0.00381495  0.86747282  0.15899897     0.31500
H779        H  0.94863296  0.93672284  0.17272403     0.30400
H780        H  0.84148154  0.91787992  0.17291687     0.32100
H781        H  0.77780990  0.86346470  0.23402870     0.31000
H782        H  0.00489870  0.76172780  0.15452866     0.35000
H783        H  0.87280063  0.72519944  0.12906151     0.27800
H784        H  0.93279189  0.91973598  0.31911111     0.32000
H785        H  0.83533563  0.86557057  0.29710794     0.34800
H786        H  0.95417393  0.90948404  0.14465138     0.27500
H787        H  0.91669201  0.71597134  0.13035272     0.40300
H788        H  0.00710175  0.76035912  0.29425485     0.30400
H789        H  0.04608693  0.75505372  0.22731387     0.38000
H790        H  0.77812130  0.83184110  0.20860887     0.29900
H791        H  0.87809973  0.70427588  0.28282020     0.29900
H792        H  0.96743667  0.93515251  0.29988488     0.30200
Zr793      Zr  0.75126649  0.61660201  0.48873608     2.17500
O794        O  0.77950128  0.65777556  0.52740577    -0.52200
O795        O  0.81362404  0.58448645  0.48738750    -0.75400
O796        O  0.73788007  0.59493011  0.04043569    -0.82200
O797        O  0.78013049  0.68413151  0.42368519    -0.83900
O798        O  0.68804046  0.55352702  0.03988523    -0.79500
O799        O  0.78321169  0.67633268  0.47481797    -0.91200
O800        O  0.81637460  0.54516381  0.44582801    -0.77100
O801        O  0.73701367  0.55139947  0.47927169    -0.86600
O802        O  0.76743405  0.60333936  0.43641036    -0.86300
O803        O  0.68360203  0.61261340  0.49792972    -0.73100
O804        O  0.71318032  0.65737375  0.45742324    -0.85200
Zr805      Zr  0.64529444  0.56901334  0.40582526     2.26400
Zr806      Zr  0.66952702  0.54709577  0.48858929     2.06300
Zr807      Zr  0.72885255  0.64211129  0.40527862     2.10000
Zr808      Zr  0.75266515  0.53855672  0.42691798     1.78800
O809        O  0.70532863  0.70494358  0.39281808    -0.94000
O810        O  0.76652535  0.47611801  0.44729414    -0.41800
O811        O  0.71310559  0.57638145  0.39568673    -0.78500
O812        O  0.68601799  0.53055185  0.43670372    -0.97100
O813        O  0.62908145  0.58499179  0.45766140    -0.90400
O814        O  0.66150027  0.63479262  0.41380201    -0.93300
C815        C  0.83146451  0.56208438  0.46853918     1.00500
C816        C  0.79275096  0.69335529  0.45010346     1.13400
C817        C  0.71309209  0.57296305  0.05415875     1.04200
O818        O  0.68958876  0.48557952  0.50713552    -0.95400
O819        O  0.62672839  0.49839755  0.47293063    -0.91200
O820        O  0.61567340  0.50705394  0.42271818    -0.84300
C821        C  0.61295246  0.48768015  0.44765045     1.10800
O822        O  0.64766534  0.70029947  0.50400212    -0.97400
Zr823      Zr  0.64566498  0.65013652  0.46523137     1.88900
O824        O  0.58271360  0.60104480  0.40372865    -0.74100
O825        O  0.61350255  0.55257654  0.52218762    -0.53300
O826        O  0.60002401  0.64379259  0.50717824    -0.98000
O827        O  0.64061590  0.71513379  0.44746458    -0.55200
O828        O  0.58743373  0.65142855  0.43642144    -0.74600
C829        C  0.56976297  0.63195906  0.41613557     0.97800
O830        O  0.62155740  0.52584311  0.36653398    -0.63400
O831        O  0.78048849  0.64397978  0.36740785    -0.58200
O832        O  0.65766611  0.59242741  0.35272866    -0.94900
O833        O  0.70939104  0.63175609  0.35269279    -0.93300
O834        O  0.79144322  0.54907236  0.38129097    -0.93700
O835        O  0.74711067  0.48340708  0.39283552    -0.92400
C836        C  0.68257417  0.61376477  0.33888290     1.16600
H837        H  0.79385137  0.60909729  0.43187752     0.32600
H838        H  0.68227475  0.50376165  0.43285612     0.43400
H839        H  0.64779782  0.65065209  0.40002677     0.36900
H840        H  0.67702267  0.62017643  0.51856571     0.33400
H841        H  0.79356976  0.47105490  0.44163050     0.25200
H842        H  0.59478870  0.54437255  0.00569485     0.31100
H843        H  0.58747200  0.61896015  0.50359821     0.37000
H844        H  0.77342330  0.54757807  0.36426335     0.31500
H845        H  0.78446964  0.67132147  0.36338104     0.30400
H846        H  0.72844474  0.72102805  0.39110649     0.32100
H847        H  0.63307652  0.71265358  0.42598720     0.31000
H848        H  0.77351093  0.47713523  0.38601311     0.35000
H849        H  0.60449431  0.54136095  0.35406848     0.27800
H850        H  0.80252325  0.63502489  0.03639251     0.32000
H851        H  0.67517136  0.70350223  0.50819336     0.34800
H852        H  0.80366120  0.63604755  0.37813848     0.27500
H853        H  0.64388665  0.51990744  0.35315664     0.40300
H854        H  0.66984917  0.47870270  0.52247426     0.30400
H855        H  0.76665191  0.48004673  0.46959252     0.38000
H856        H  0.66723041  0.72459429  0.44647849     0.29900
H857        H  0.61677053  0.51840866  0.02809945     0.29900
H858        H  0.76741944  0.66258771  0.04054323     0.30200
Zr859      Zr  0.64596666  0.57097224  0.15363780     2.17500
O860        O  0.60032653  0.56605744  0.11250322    -0.52200
O861        O  0.61857313  0.50531449  0.16136560    -0.75400
O862        O  0.67751586  0.56618117  0.10151589    -0.82200
O863        O  0.58138484  0.63436316  0.20105205    -0.83900
O864        O  0.74153580  0.57606942  0.10370369    -0.79500
O865        O  0.58479605  0.60302926  0.15528826    -0.91200
O866        O  0.64280392  0.48395475  0.20519944    -0.77100
O867        O  0.70034768  0.53568920  0.16788803    -0.86600
O868        O  0.63576605  0.56067846  0.20712921    -0.86300
O869        O  0.69830753  0.61484072  0.14564285    -0.73100
O870        O  0.64424862  0.63096202  0.18202978    -0.85200
Zr871      Zr  0.74308501  0.62454557  0.23903491     2.26400
Zr872      Zr  0.75315389  0.57829964  0.15869650     2.06300
Zr873      Zr  0.63413738  0.61986180  0.23502701     2.10000
Zr874      Zr  0.69052930  0.52600742  0.22135055     1.78800
O875        O  0.60757650  0.67876695  0.25640868    -0.94000
O876        O  0.72383054  0.46859296  0.20396638    -0.41800
O877        O  0.68879570  0.58486163  0.24861056    -0.78500
O878        O  0.74425819  0.56402455  0.21169275    -0.97100
O879        O  0.75129501  0.63748918  0.18623434    -0.90400
O880        O  0.68812674  0.66114883  0.22709596    -0.93300
C881        C  0.62045063  0.48089580  0.18305093     1.00500
C882        C  0.56849678  0.62561798  0.17453899     1.13400
C883        C  0.71086446  0.57109832  0.08851462     1.04200
O884        O  0.77805517  0.51843052  0.13804564    -0.95400
O885        O  0.81140100  0.56830176  0.18686296    -0.91200
O886        O  0.80510839  0.59267294  0.23516622    -0.84300
C887        C  0.82316557  0.57375893  0.21417026     1.10800
O888        O  0.64926694  0.70064078  0.14102332    -0.97400
Zr889      Zr  0.69663420  0.67345309  0.17413947     1.88900
O890        O  0.76775777  0.68949650  0.23116925    -0.74100
O891        O  0.80318845  0.61586860  0.13433502    -0.53300
O892        O  0.71694409  0.70277061  0.12681144    -0.98000
O893        O  0.67449529  0.73120391  0.20046249    -0.55200
O894        O  0.75849962  0.70305550  0.18203511    -0.74600
C895        C  0.77575029  0.70831927  0.20709249     0.97800
O896        O  0.78289564  0.64384782  0.28157048    -0.63400
O897        O  0.58127891  0.58669449  0.25980418    -0.58200
O898        O  0.71539657  0.62149595  0.29122709    -0.94900
O899        O  0.65081482  0.61526835  0.28988398    -0.93300
O900        O  0.65441474  0.50548873  0.26597250    -0.93700
O901        O  0.72912513  0.50291574  0.26258618    -0.92400
C902        C  0.68249846  0.61720200  0.30460933     1.16600
H903        H  0.61202077  0.54761031  0.21117668     0.32600
H904        H  0.76207024  0.54562370  0.21896172     0.43400
H905        H  0.68674318  0.68382442  0.23976109     0.36900
H906        H  0.69901809  0.62408704  0.12519665     0.33400
H907        H  0.75100432  0.47301891  0.20871815     0.25200
H908        H  0.80785218  0.60369266  0.11417121     0.31100
H909        H  0.73295717  0.68340700  0.11610414     0.37000
H910        H  0.62721606  0.50757652  0.26051243     0.31500
H911        H  0.57387401  0.60331426  0.27731825     0.30400
H912        H  0.62786651  0.68958985  0.26930040     0.32100
H913        H  0.64786233  0.73485143  0.19402274     0.31000
H914        H  0.74123964  0.52600214  0.27129492     0.35000
H915        H  0.79261795  0.61997743  0.29014168     0.27800
H916        H  0.60617808  0.54171976  0.10176245     0.32000
H917        H  0.63329814  0.67882715  0.13453130     0.34800
H918        H  0.55968093  0.58858269  0.24575054     0.27500
H919        H  0.80574751  0.65607037  0.27244979     0.40300
H920        H  0.77971193  0.50172231  0.15580551     0.30400
H921        H  0.71532309  0.44867323  0.21818208     0.38000
H922        H  0.68901876  0.75197383  0.19069411     0.29900
H923        H  0.79082416  0.64040411  0.12989515     0.29900
H924        H  0.60754613  0.58604814  0.09791538     0.30200
Zr925      Zr  0.05616000  0.15959192  0.03659197     2.17500
O926        O  0.04485542  0.11255263  0.07591818    -0.52200
O927        O  0.98988166  0.13420955  0.03294395    -0.75400
O928        O  0.06349925  0.18567101  0.08888577    -0.82200
O929        O  0.09912168  0.09651165  0.47606442    -0.83900
O930        O  0.06865948  0.25022869  0.08881848    -0.79500
O931        O  0.09117140  0.09958914  0.02878892    -0.91200
O932        O  0.96415514  0.18999808  0.02512112    -0.77100
O933        O  0.02188531  0.21801536  0.03070107    -0.86600
O934        O  0.03132086  0.15507626  0.48529624    -0.86300
O935        O  0.10284160  0.21069925  0.04079451    -0.73100
O936        O  0.10922878  0.15799546  0.00073654    -0.85200
Zr937      Zr  0.09102639  0.26362011  0.45103847     2.26400
Zr938      Zr  0.06809617  0.26900421  0.03491291     2.06300
Zr939      Zr  0.08360104  0.15497350  0.44954720     2.10000
Zr940      Zr  0.99643044  0.21282022  0.48178051     1.78800
O941        O  0.13939509  0.13402571  0.41987415    -0.94000
O942        O  0.93003729  0.23404458  0.98820798    -0.41800
O943        O  0.04744574  0.21175606  0.44559078    -0.78500
O944        O  0.03867549  0.26469748  0.48821235    -0.97100
O945        O  0.11937197  0.26599535  0.99909745    -0.90400
O946        O  0.12828523  0.20682811  0.45313913    -0.93300
C947        C  0.96062115  0.15436125  0.02689174     1.00500
C948        C  0.10322925  0.08248221  0.00442607     1.13400
C949        C  0.06824366  0.21809254  0.10262313     1.04200
O950        O  0.03743843  0.31625371  0.06814459    -0.95400
O951        O  0.05413121  0.32999863  0.00941966    -0.91200
O952        O  0.06167735  0.32463396  0.46137438    -0.84300
C953        C  0.05023980  0.34260410  0.98209419     1.10800
O954        O  0.18961196  0.16541223  0.03585080    -0.97400
Zr955      Zr  0.15440476  0.20881718  0.00416532     1.88900
O956        O  0.15614778  0.29103451  0.45056691    -0.74100
O957        O  0.12865242  0.30077392  0.04437528    -0.53300
O958        O  0.18543736  0.24192614  0.04608514    -0.98000
O959        O  0.20049377  0.17529343  0.46845284    -0.55200
O960        O  0.19098370  0.26320486  0.48692329    -0.74600
C961        C  0.18604065  0.28877621  0.46707852     0.97800
O962        O  0.09736342  0.31132490  0.41158785    -0.63400
O963        O  0.04686387  0.10601279  0.42321011    -0.58200
O964        O  0.07510696  0.24034082  0.39970284    -0.94900
O965        O  0.06770475  0.17617119  0.39831792    -0.93300
O966        O  0.96758646  0.16190614  0.45191987    -0.93700
O967        O  0.96752877  0.24602431  0.43999294    -0.92400
C968        C  0.06724559  0.20894157  0.38563068     1.16600
H969        H  0.01664550  0.13227894  0.48174969     0.32600
H970        H  0.01991436  0.28442279  0.48643798     0.43400
H971        H  0.14742346  0.20612869  0.43706262     0.36900
H972        H  0.11615085  0.21019964  0.05971017     0.33400
H973        H  0.93110622  0.26206045  0.99071938     0.25200
H974        H  0.12596210  0.32638586  0.03568205     0.31100
H975        H  0.21303552  0.24130291  0.04080979     0.37000
H976        H  0.98324587  0.16042891  0.43298510     0.31500
H977        H  0.06370778  0.09734488  0.40615554     0.30400
H978        H  0.15116748  0.11391521  0.43201911     0.32100
H979        H  0.19319060  0.14817028  0.46943978     0.31000
H980        H  0.98818400  0.26239072  0.43183482     0.35000
H981        H  0.11670538  0.30128035  0.39684481     0.27800
H982        H  0.02537396  0.12376962  0.08999275     0.32000
H983        H  0.17825804  0.16862907  0.05649084     0.34800
H984        H  0.04575717  0.08416941  0.43704020     0.27500
H985        H  0.07304091  0.31128441  0.40048113     0.40300
H986        H  0.05855792  0.33254985  0.07542845     0.30400
H987        H  0.91724964  0.22931107  0.96865606     0.38000
H988        H  0.22533836  0.17690695  0.47874936     0.29900
H989        H  0.12875803  0.30541887  0.06659282     0.29900
H990        H  0.06854962  0.11167817  0.08779653     0.30200
Zr991      Zr  0.05230602  0.15972708  0.28332708     2.17500
O992        O  0.04862711  0.10719682  0.31888322    -0.52200
O993        O  0.98730845  0.13348310  0.27359656    -0.75400
O994        O  0.05320561  0.17997275  0.33746664    -0.82200
O995        O  0.10345394  0.10158443  0.22534057    -0.83900
O996        O  0.06058712  0.24420047  0.34044486    -0.79500
O997        O  0.08592478  0.09948483  0.27519608    -0.91200
O998        O  0.95416396  0.18437100  0.25920480    -0.77100
O999        O  0.01603632  0.21695019  0.27899893    -0.86600
O1000       O  0.03227147  0.16010472  0.23140609    -0.86300
O1001       O  0.09699634  0.21145638  0.29245752    -0.73100
O1002       O  0.10892196  0.16196685  0.25118289    -0.85200
Zr1003     Zr  0.09394395  0.26945028  0.20430553     2.26400
Zr1004     Zr  0.05971165  0.26839863  0.28845989     2.06300
Zr1005     Zr  0.08855967  0.16109931  0.19997001     2.10000
Zr1006     Zr  0.99684878  0.21775296  0.22703540     1.78800
O1007       O  0.14794120  0.14086309  0.17497812    -0.94000
O1008       O  0.94664646  0.26252705  0.24257986    -0.41800
O1009       O  0.05193075  0.21750984  0.19483850    -0.78500
O1010       O  0.03763866  0.26962789  0.23705084    -0.97100
O1011       O  0.11499829  0.26982679  0.25562429    -0.90400
O1012       O  0.13173489  0.21336452  0.20813011    -0.93300
C1013       C  0.95673207  0.14904708  0.26371461     1.00500
C1014       C  0.10227410  0.08522159  0.25138412     1.13400
C1015       C  0.05877635  0.21116251  0.35261872     1.04200
O1016       O  0.00040711  0.29340708  0.31067992    -0.95400
O1017       O  0.05377362  0.33322846  0.26951453    -0.91200
O1018       O  0.06958110  0.33181185  0.21903008    -0.84300
C1019       C  0.05709051  0.34874121  0.24329576     1.10800
O1020       O  0.18184798  0.16548573  0.29018612    -0.97400
Zr1021     Zr  0.15205076  0.21381205  0.25956114     1.88900
O1022       O  0.15946553  0.29374207  0.20652109    -0.74100
O1023       O  0.09909418  0.30989493  0.31991597    -0.53300
O1024       O  0.18641562  0.23325858  0.30478648    -0.98000
O1025       O  0.20299313  0.18593324  0.22798415    -0.55200
O1026       O  0.18669209  0.27259698  0.24924638    -0.74600
C1027       C  0.18525996  0.29527165  0.22683536     0.97800
O1028       O  0.10296243  0.31422491  0.16304677    -0.63400
O1029       O  0.05510952  0.11067472  0.17253305    -0.58200
O1030       O  0.08005131  0.24926438  0.15105847    -0.94900
O1031       O  0.07864171  0.18462125  0.14844656    -0.93300
O1032       O  0.97047599  0.17539940  0.18843386    -0.93700
O1033       O  0.96829040  0.25577979  0.18762837    -0.92400
C1034       C  0.07598049  0.21749179  0.13610277     1.16600
H1035       H  0.01777329  0.13802609  0.22538364     0.32600
H1036       H  0.02031062  0.29025723  0.23374041     0.43400
H1037       H  0.15265321  0.21345530  0.19352651     0.36900
H1038       H  0.10879901  0.20922197  0.31189316     0.33400
H1039       H  0.92230808  0.24916528  0.23856329     0.25200
H1040       H  0.11680597  0.29264574  0.33019902     0.31100
H1041       H  0.17399613  0.25724682  0.31167652     0.37000
H1042       H  0.98765520  0.17846430  0.17052587     0.31500
H1043       H  0.03882641  0.12371635  0.15784786     0.30400
H1044       H  0.14023784  0.13075136  0.15489804     0.32100
H1045       H  0.20209610  0.15836748  0.23209237     0.31000
H1046       H  0.94339049  0.24379350  0.18312764     0.35000
H1047       H  0.07737080  0.32503693  0.15945672     0.27800
H1048       H  0.02453340  0.11095268  0.33066899     0.32000
H1049       H  0.16036229  0.14961588  0.29758990     0.34800
H1050       H  0.07510287  0.09789092  0.15987004     0.27500
H1051       H  0.11778225  0.33571003  0.17165860     0.40300
H1052       H  0.99668257  0.27986393  0.33000401     0.30400
H1053       H  0.94794112  0.26402021  0.26499422     0.38000
H1054       H  0.22684993  0.19497463  0.23742019     0.29900
H1055       H  0.11559741  0.32378849  0.30537555     0.29900
H1056       H  0.06923829  0.11123174  0.33370002     0.30200
Zr1057     Zr  0.34646703  0.45232527  0.40715821     2.17500
O1058       O  0.39293639  0.46423844  0.36636721    -0.52200
O1059       O  0.37199376  0.51876401  0.41074860    -0.75400
O1060       O  0.31958076  0.44782987  0.35530595    -0.82200
O1061       O  0.41318819  0.40052263  0.45888645    -0.83900
O1062       O  0.25486601  0.44271261  0.35705604    -0.79500
O1063       O  0.40777338  0.41960708  0.40999572    -0.91200
O1064       O  0.34013018  0.54810179  0.44977203    -0.77100
O1065       O  0.28994289  0.48809315  0.41851066    -0.86600
O1066       O  0.35216599  0.47115505  0.45952373    -0.86300
O1067       O  0.29485050  0.40669667  0.40100935    -0.73100
O1068       O  0.34948032  0.39594255  0.43786460    -0.85200
Zr1069     Zr  0.24643324  0.40733291  0.49363990     2.26400
Zr1070     Zr  0.23839456  0.44359819  0.41191375     2.06300
Zr1071     Zr  0.35530896  0.41525309  0.48982299     2.10000
Zr1072     Zr  0.29512381  0.50583232  0.47099240     1.78800
O1073       O  0.37664361  0.35714059  0.51347783    -0.94000
O1074       O  0.25623858  0.55873780  0.45430464    -0.41800
O1075       O  0.29866335  0.44996914  0.49984309    -0.78500
O1076       O  0.24269382  0.46479459  0.46396251    -0.97100
O1077       O  0.24189145  0.38777791  0.44182776    -0.90400
O1078       O  0.30306735  0.37125728  0.48410532    -0.93300
C1079       C  0.36576764  0.54740528  0.42898083     1.00500
C1080       C  0.42592319  0.40351363  0.43127015     1.13400
C1081       C  0.28701435  0.44379731  0.34223290     1.04200
O1082       O  0.21369796  0.50304438  0.39273558    -0.95400
O1083       O  0.17797474  0.44856094  0.44109935    -0.91200
O1084       O  0.18339785  0.43349059  0.49102796    -0.84300
C1085       C  0.16499922  0.44641993  0.46873507     1.10800
O1086       O  0.35422934  0.32483953  0.40602752    -0.97400
Zr1087     Zr  0.29798098  0.35159643  0.43206506     1.88900
O1088       O  0.21775664  0.34358634  0.48622456    -0.74100
O1089       O  0.19039169  0.40734525  0.38439073    -0.53300
O1090       O  0.28058956  0.32046970  0.38437528    -0.98000
O1091       O  0.31435569  0.29551981  0.46109806    -0.55200
O1092       O  0.23815846  0.31803297  0.44124048    -0.74600
C1093       C  0.21577391  0.31856031  0.46456600     0.97800
O1094       O  0.22117808  0.38081299  0.03823223    -0.63400
O1095       O  0.40805164  0.44886071  0.01466366    -0.58200
O1096       O  0.26670206  0.42645642  0.04304907    -0.94900
O1097       O  0.33171072  0.42936748  0.04256646    -0.93300
O1098       O  0.33059689  0.53365497  0.51291175    -0.93700
O1099       O  0.25483550  0.53079678  0.51250674    -0.92400
C1100       C  0.29866192  0.43192349  0.05647352     1.16600
H1101       H  0.37483098  0.48611064  0.46296830     0.32600
H1102       H  0.22305254  0.48254210  0.47025860     0.43400
H1103       H  0.30433395  0.35033048  0.49793374     0.36900
H1104       H  0.29472077  0.39483728  0.38114524     0.33400
H1105       H  0.26293375  0.58032812  0.46794343     0.25200
H1106       H  0.18291949  0.38656000  0.39815141     0.31100
H1107       H  0.25342767  0.32712592  0.38161691     0.37000
H1108       H  0.32496172  0.56120839  0.51233848     0.31500
H1109       H  0.39925740  0.47535756  0.01807490     0.30400
H1110       H  0.39015274  0.36526938  0.02937091     0.32100
H1111       H  0.34075879  0.28845848  0.45496229     0.31000
H1112       H  0.24626614  0.50806940  0.52369388     0.35000
H1113       H  0.19382284  0.37582111  0.03449612     0.27800
H1114       H  0.38177042  0.48435662  0.35384649     0.32000
H1115       H  0.34747999  0.29834884  0.40034655     0.34800
H1116       H  0.42126347  0.46203511  0.49834124     0.27500
H1117       H  0.22643964  0.36166742  0.54475704     0.40300
H1118       H  0.19170891  0.49539171  0.38021534     0.30400
H1119       H  0.26728856  0.56571122  0.43431995     0.38000
H1120       H  0.29832237  0.27477704  0.45274821     0.29900
H1121       H  0.16771122  0.42411629  0.38407769     0.29900
H1122       H  0.39310534  0.44111174  0.35319036     0.30200
Zr1123     Zr  0.34595640  0.45623617  0.15808611     2.17500
O1124       O  0.38881496  0.46699011  0.11461746    -0.52200
O1125       O  0.37313737  0.52148047  0.16366149    -0.75400
O1126       O  0.32758801  0.44692896  0.10436909    -0.82200
O1127       O  0.40427009  0.41111562  0.21532630    -0.83900
O1128       O  0.26291811  0.44175000  0.10290721    -0.79500
O1129       O  0.40723427  0.42525651  0.16524385    -0.91200
O1130       O  0.33475299  0.55597115  0.19586207    -0.77100
O1131       O  0.28874242  0.49272690  0.16353454    -0.86600
O1132       O  0.34513553  0.48038153  0.20939674    -0.86300
O1133       O  0.29464895  0.41058415  0.15171823    -0.73100
O1134       O  0.34545262  0.40264244  0.19208057    -0.85200
Zr1135     Zr  0.23532076  0.42090620  0.24078379     2.26400
Zr1136     Zr  0.23785411  0.44811333  0.15566270     2.06300
Zr1137     Zr  0.34480904  0.42798415  0.24264403     2.10000
Zr1138     Zr  0.28730481  0.51547860  0.21516704     1.78800
O1139       O  0.37242153  0.37662561  0.27133802    -0.94000
O1140       O  0.25303339  0.56526998  0.18918663    -0.41800
O1141       O  0.28724938  0.46392118  0.24926108    -0.78500
O1142       O  0.23577381  0.47410391  0.20654237    -0.97100
O1143       O  0.23664423  0.39546864  0.18985677    -0.90400
O1144       O  0.29275985  0.38411809  0.23670438    -0.93300
C1145       C  0.36441586  0.55187131  0.17914437     1.00500
C1146       C  0.42141168  0.41108671  0.18904995     1.13400
C1147       C  0.29634878  0.44145259  0.08985761     1.04200
O1148       O  0.22091608  0.50862076  0.13355756    -0.95400
O1149       O  0.17220394  0.45415028  0.17576653    -0.91200
O1150       O  0.17324951  0.44662643  0.22710608    -0.84300
C1151       C  0.15644758  0.45522833  0.20244061     1.10800
O1152       O  0.34384867  0.33082205  0.15368080    -0.97400
Zr1153     Zr  0.29377864  0.35894596  0.18612405     1.88900
O1154       O  0.21222496  0.35461267  0.24197023    -0.74100
O1155       O  0.19407885  0.41281875  0.12326546    -0.53300
O1156       O  0.27513482  0.32255429  0.14112041    -0.98000
O1157       O  0.32116117  0.31012231  0.21778906    -0.55200
O1158       O  0.23856064  0.32212824  0.20185495    -0.74600
C1159       C  0.21435097  0.32549916  0.22384251     0.97800
O1160       O  0.18227291  0.42097226  0.27758457    -0.63400
O1161       O  0.39158828  0.47090258  0.26533165    -0.58200
O1162       O  0.25584672  0.43324929  0.29410122    -0.94900
O1163       O  0.32071597  0.43593249  0.29501977    -0.93300
O1164       O  0.31890192  0.54605579  0.25787792    -0.93700
O1165       O  0.24261861  0.54646976  0.25075854    -0.92400
C1166       C  0.28764891  0.43746287  0.30834034     1.16600
H1167       H  0.36755092  0.49502282  0.21423484     0.32600
H1168       H  0.21522432  0.49199323  0.20944671     0.43400
H1169       H  0.29307752  0.36456976  0.25184193     0.36900
H1170       H  0.29689766  0.39681038  0.13268171     0.33400
H1171       H  0.22560612  0.55947006  0.19241364     0.25200
H1172       H  0.18208176  0.39367739  0.13661692     0.31100
H1173       H  0.25555135  0.30415239  0.14795113     0.37000
H1174       H  0.34485076  0.53493008  0.25787468     0.31500
H1175       H  0.38160002  0.47704086  0.28600374     0.30400
H1176       H  0.39623584  0.38742878  0.27965347     0.32100
H1177       H  0.34896552  0.31516189  0.21788557     0.31000
H1178       H  0.22956924  0.52529623  0.26123533     0.35000
H1179       H  0.18845645  0.40125897  0.29247038     0.27800
H1180       H  0.40104989  0.44221506  0.10961093     0.32000
H1181       H  0.36573924  0.32623586  0.16699408     0.34800
H1182       H  0.41435875  0.45495062  0.26861401     0.27500
H1183       H  0.18388675  0.44544074  0.28898224     0.40300
H1184       H  0.19496091  0.51435387  0.14164890     0.30400
H1185       H  0.25746985  0.58876989  0.20134137     0.38000
H1186       H  0.31838860  0.28612589  0.20592856     0.29900
H1187       H  0.17330811  0.43089674  0.11891078     0.29900
H1188       H  0.40982212  0.48307341  0.12236575     0.30200
Zr1189     Zr  0.04167406  0.46993553  0.51394244     2.17500
O1190       O  0.07097461  0.47508905  0.05787829    -0.52200
O1191       O  0.03886219  0.40215531  0.00227444    -0.75400
O1192       O  0.99443613  0.42235334  0.03106846    -0.82200
O1193       O  0.11958461  0.48902880  0.45533332    -0.83900
O1194       O  0.93481853  0.43528050  0.01506098    -0.79500
O1195       O  0.10864677  0.45705631  0.49903016    -0.91200
O1196       O  0.02381326  0.39231143  0.45932245    -0.77100
O1197       O  0.99398136  0.49080501  0.48178193    -0.86600
O1198       O  0.05000696  0.46512913  0.46015075    -0.86300
O1199       O  0.99057678  0.51057412  0.03007034    -0.73100
O1200       O  0.06179822  0.53260638  0.50242270    -0.85200
Zr1201     Zr  0.96421583  0.55856815  0.44209713     2.26400
Zr1202     Zr  0.93425680  0.49998065  0.00067772     2.06300
Zr1203     Zr  0.06672517  0.52921362  0.44780755     2.10000
Zr1204     Zr  0.99069722  0.44913331  0.43983008     1.78800
O1205       O  0.12298571  0.56776725  0.45807592    -0.94000
O1206       O  0.94941424  0.40023692  0.46100200    -0.41800
O1207       O  0.00893437  0.51134149  0.42300164    -0.78500
O1208       O  0.94204624  0.49495444  0.45411253    -0.97100
O1209       O  0.95238340  0.56233589  0.49589308    -0.90400
O1210       O  0.02195066  0.57443327  0.46695828    -0.93300
C1211       C  0.04042225  0.38195001  0.48382334     1.00500
C1212       C  0.12885787  0.46510264  0.47520202     1.13400
C1213       C  0.95876643  0.41457936  0.02835134     1.04200
O1214       O  0.88297758  0.45746556  0.98525332    -0.95400
O1215       O  0.88219103  0.54077448  0.49783745    -0.91200
O1216       O  0.89477495  0.55965610  0.44963193    -0.84300
C1217       C  0.87208451  0.55452857  0.47255437     1.10800
O1218       O  0.05199633  0.58361744  0.05943237    -0.97400
Zr1219     Zr  0.01148729  0.57560268  0.51984324     1.88900
O1220       O  0.94981252  0.62239244  0.45644811    -0.74100
O1221       O  0.90871767  0.51213982  0.05171442    -0.53300
O1222       O  0.96727713  0.57890941  0.06176059    -0.98000
O1223       O  0.05623700  0.62891129  0.52115185    -0.55200
O1224       O  0.97704338  0.63142363  0.50264348    -0.74600
C1225       C  0.95776742  0.64254622  0.47981099     0.97800
O1226       O  0.93926769  0.55953836  0.39093511    -0.63400
O1227       O  0.09046835  0.51445992  0.39656984    -0.58200
O1228       O  0.00447116  0.60313163  0.41235599    -0.94900
O1229       O  0.06602018  0.58327582  0.41598350    -0.93300
O1230       O  0.02374966  0.43661067  0.39153846    -0.93700
O1231       O  0.95040061  0.43994871  0.39587879    -0.92400
C1232       C  0.04081487  0.60655877  0.40716158     1.16600
H1233       H  0.06758244  0.44600478  0.45248910     0.32600
H1234       H  0.91807376  0.48889142  0.44467901     0.43400
H1235       H  0.03032662  0.60001144  0.46314384     0.36900
H1236       H  0.98629047  0.50716965  0.05157474     0.33400
H1237       H  0.92385403  0.41207512  0.46232228     0.25200
H1238       H  0.88339363  0.49961236  0.05177957     0.31100
H1239       H  0.96247421  0.60647650  0.06471204     0.37000
H1240       H  0.05018637  0.43010781  0.39704752     0.31500
H1241       H  0.11612898  0.52626945  0.39552219     0.30400
H1242       H  0.12572486  0.56735814  0.48038222     0.32100
H1243       H  0.04817065  0.64639940  0.50514471     0.31000
H1244       H  0.95017492  0.46507213  0.38610381     0.35000
H1245       H  0.92487607  0.53542368  0.38884236     0.27800
H1246       H  0.05378040  0.49134248  0.07059699     0.32000
H1247       H  0.06541229  0.55903655  0.06112785     0.34800
H1248       H  0.09555318  0.48677634  0.39635822     0.27500
H1249       H  0.91942937  0.57958734  0.39164808     0.40300
H1250       H  0.85988633  0.46755185  0.99590604     0.30400
H1251       H  0.94725757  0.38100616  0.44442099     0.38000
H1252       H  0.08066693  0.61815226  0.51326034     0.29900
H1253       H  0.90274088  0.53964671  0.05232715     0.29900
H1254       H  0.09359540  0.49117718  0.05366928     0.30200
Zr1255     Zr  0.94671456  0.55697137  0.25293061     2.17500
O1256       O  0.91761331  0.55309205  0.30340574    -0.52200
O1257       O  0.94174268  0.62157721  0.23903707    -0.75400
O1258       O  0.98506307  0.60907904  0.27019322    -0.82200
O1259       O  0.86576036  0.52412127  0.20528252    -0.83900
O1260       O  0.04803122  0.59933369  0.26059191    -0.79500
O1261       O  0.87919473  0.56688625  0.24287583    -0.91200
O1262       O  0.95872767  0.62475884  0.18922744    -0.77100
O1263       O  0.99377740  0.53232978  0.21961733    -0.86600
O1264       O  0.93395740  0.54882558  0.20050588    -0.86300
O1265       O  0.00119067  0.52578327  0.27388908    -0.73100
O1266       O  0.92978368  0.49193081  0.25246927    -0.85200
Zr1267     Zr  0.02451334  0.45864975  0.18781319     2.26400
Zr1268     Zr  0.05550896  0.53531647  0.24029254     2.06300
Zr1269     Zr  0.91966147  0.48180327  0.19896381     2.10000
Zr1270     Zr  0.98998820  0.56377015  0.17344521     1.78800
O1271       O  0.86896419  0.44605935  0.22404521    -0.94000
O1272       O  0.03551413  0.61414819  0.18522782    -0.41800
O1273       O  0.97435309  0.49726089  0.16747845    -0.78500
O1274       O  0.04332139  0.52518573  0.18769294    -0.97100
O1275       O  0.04120319  0.47022271  0.23954342    -0.90400
O1276       O  0.97048674  0.44583450  0.21923416    -0.93300
C1277       C  0.94539193  0.63946003  0.21432845     1.00500
C1278       C  0.85774472  0.55344241  0.22193245     1.13400
C1279       C  0.01992397  0.61938430  0.27078074     1.04200
O1280       O  0.09648892  0.58114098  0.21465609    -0.95400
O1281       O  0.10938142  0.49313917  0.22728727    -0.91200
O1282       O  0.09330168  0.45800465  0.18568139    -0.84300
C1283       C  0.11729418  0.46961285  0.20530300     1.10800
O1284       O  0.02762869  0.45922057  0.31387772    -0.97400
Zr1285     Zr  0.98561755  0.45911016  0.27045032     1.88900
O1286       O  0.04459767  0.40140350  0.21304283    -0.74100
O1287       O  0.09048695  0.52690209  0.28697261    -0.53300
O1288       O  0.95106428  0.40011769  0.28009658    -0.98000
O1289       O  0.94494747  0.46882522  0.31555702    -0.55200
O1290       O  0.02362715  0.40227816  0.26232639    -0.75800
C1291       C  0.04147221  0.38693717  0.23956813     0.97800
O1292       O  0.04729489  0.44510249  0.13609377    -0.63400
O1293       O  0.88709159  0.47890772  0.15057643    -0.58200
O1294       O  0.98668214  0.40757174  0.16545639    -0.94900
O1295       O  0.92385624  0.41938820  0.17484598    -0.93300
O1296       O  0.95062049  0.56938448  0.12882148    -0.93700
O1297       O  0.02051471  0.56061280  0.12334207    -0.92400
C1298       C  0.95119732  0.39798687  0.16502721     1.16600
H1299       H  0.91541726  0.56573355  0.19216354     0.32600
H1300       H  0.06576927  0.52946316  0.17515357     0.43400
H1301       H  0.96475330  0.41902271  0.21903165     0.36900
H1302       H  0.00607116  0.53412358  0.29446703     0.33400
H1303       H  0.02912559  0.63534541  0.17174362     0.25200
H1304       H  0.10049570  0.50058440  0.28577892     0.31100
H1305       H  0.93491512  0.39558041  0.26221835     0.37000
H1306       H  0.92491503  0.56078211  0.13541941     0.31500
H1307       H  0.87733279  0.50495476  0.14760140     0.30400
H1308       H  0.88243749  0.42804019  0.23709873     0.32100
H1309       H  0.96035705  0.48436606  0.32971953     0.31000
H1310       H  0.04370343  0.54498096  0.12572830     0.35000
H1311       H  0.06367634  0.46707624  0.13085104     0.27800
H1312       H  0.90939036  0.57945508  0.30833172     0.32000
H1313       H  0.02385127  0.43388288  0.32290740     0.34800
H1314       H  0.90780680  0.47592788  0.13511253     0.27500
H1315       H  0.02456204  0.44809974  0.12333423     0.40300
H1316       H  0.12227746  0.56963348  0.21465621     0.30400
H1317       H  0.02847205  0.62350792  0.20588567     0.38000
H1318       H  0.94278441  0.44381649  0.32536541     0.29900
H1319       H  0.11335289  0.54324108  0.28462099     0.29900
H1320       H  0.93928279  0.54877798  0.31700580     0.30200
C1321       C  0.02838033  0.65589357  0.28606309    -0.20700
C1322       C  0.00591533  0.66921132  0.31116260     0.35500
C1323       C  0.02095121  0.69671868  0.33048834    -0.26700
C1324       C  0.05978302  0.70681516  0.32773424     0.01900
C1325       C  0.07695863  0.70287889  0.29869351     0.26700
C1326       C  0.06195339  0.67576317  0.27830879    -0.25800
N1327       N  0.96959147  0.65328795  0.31947889    -0.83200
H1328       H  0.00459512  0.70372773  0.35093259     0.12600
C1329       C  0.08275413  0.69889262  0.35515124     0.01900
N1330       N  0.11093525  0.72385727  0.29133907    -0.81800
H1331       H  0.07758955  0.66846101  0.25756322     0.17400
C1332       C  0.06403090  0.70753334  0.38296725    -0.26600
C1333       C  0.04829840  0.67772745  0.40000830     0.35400
C1334       C  0.05647092  0.63963267  0.39108321    -0.20600
C1335       C  0.08618849  0.63320794  0.36979096    -0.25900
C1336       C  0.10185634  0.66341974  0.35370239     0.26800
H1337       H  0.05303999  0.73589910  0.38690920     0.12500
N1338       N  0.02399132  0.68686052  0.42555643    -0.83200
H1339       H  0.09736446  0.60479464  0.36571217     0.17400
N1340       N  0.13460861  0.65648506  0.33437062    -0.81800
H1341       H  0.03553286  0.67462789  0.44477449     0.33000
H1342       H  0.99727278  0.67471265  0.42184965     0.37500
H1343       H  0.12616128  0.63941726  0.31601337     0.33000
H1344       H  0.14549681  0.68198370  0.32615197     0.29700
H1345       H  0.12000178  0.71744771  0.26908468     0.33000
H1346       H  0.10369210  0.75269868  0.29191320     0.29700
H1347       H  0.97296355  0.62443908  0.32404823     0.37600
H1348       H  0.95079095  0.65667044  0.30161296     0.33000
C1349       C  0.94278183  0.38107052  0.04331261    -0.20700
C1350       C  0.91092346  0.38538935  0.06290582     0.35500
C1351       C  0.89922956  0.35508526  0.08069293    -0.26700
C1352       C  0.92113567  0.32139838  0.08143148     0.01900
C1353       C  0.94758836  0.31464136  0.05736069     0.26700
C1354       C  0.95895566  0.34499401  0.03881366    -0.25800
N1355       N  0.89246955  0.42155952  0.06689039    -0.83200
H1356       H  0.87613128  0.36049315  0.09683124     0.12600
C1357       C  0.92570756  0.30219341  0.11140875     0.01900
N1358       N  0.96419166  0.27767996  0.05308598    -0.81800
H1359       H  0.98119222  0.34090351  0.02173295     0.17400
C1360       C  0.89764617  0.31162017  0.13346940    -0.26600
C1361       C  0.90425488  0.34385385  0.15207327     0.35400
C1362       C  0.94186590  0.35958700  0.15266497    -0.20600
C1363       C  0.97176465  0.33677741  0.14070335    -0.25900
C1364       C  0.96309295  0.30507093  0.12238156     0.26800
H1365       H  0.86841303  0.30280049  0.12988054     0.12500
N1366       N  0.87221205  0.36083904  0.16773390    -0.83200
H1367       H  0.00134650  0.34391509  0.14475622     0.17400
N1368       N  0.99210655  0.27871733  0.11257012    -0.81800
H1369       H  0.86680075  0.38739907  0.15850838     0.33000
H1370       H  0.87867391  0.36402329  0.19069844     0.37500
H1371       H  0.01772578  0.28551893  0.12318183     0.33000
H1372       H  0.98406544  0.25193139  0.12034523     0.29700
H1373       H  0.98202797  0.27744313  0.03384157     0.33000
H1374       H  0.94195874  0.25870017  0.04859847     0.29700
H1375       H  0.89477982  0.43010760  0.08963669     0.37600
H1376       H  0.86349995  0.41806007  0.06227891     0.33000
C1377       C  0.53141295  0.87788382  0.37751880    -0.20700
C1378       C  0.52658773  0.86982492  0.34655937     0.35500
C1379       C  0.55923725  0.86415806  0.32814406    -0.26700
C1380       C  0.59578491  0.86999372  0.34070992     0.01900
C1381       C  0.59883182  0.86281283  0.37180551     0.26700
C1382       C  0.56563572  0.86465055  0.39005239    -0.25800
N1383       N  0.48983718  0.87179298  0.33305087    -0.83200
H1384       H  0.55573310  0.86267175  0.30386576     0.12600
C1385       C  0.62099808  0.89963335  0.32658945     0.01900
N1386       N  0.63548537  0.85860757  0.38519214    -0.81800
H1387       H  0.56879484  0.86288301  0.41416272     0.17400
C1388       C  0.62801443  0.93236705  0.34458022    -0.26600
C1389       C  0.61168995  0.96753387  0.33673177     0.35400
C1390       C  0.58706740  0.96792611  0.31167500    -0.20600
C1391       C  0.59491951  0.94014243  0.28895806    -0.25900
C1392       C  0.61517052  0.90707812  0.29594528     0.26800
H1393       H  0.64311172  0.92996174  0.36560144     0.12500
N1394       N  0.62271598  0.00192424  0.35205845    -0.83200
H1395       H  0.58479403  0.94399453  0.26632470     0.17400
N1396       N  0.62649168  0.88008172  0.27283272    -0.81800
H1397       H  0.63701822  0.01876275  0.33616368     0.33000
H1398       H  0.64240770  0.99615799  0.36890922     0.37500
H1399       H  0.65614792  0.87717310  0.27362699     0.33000
H1400       H  0.61463228  0.85362822  0.27792684     0.29700
H1401       H  0.63848241  0.87984391  0.40190302     0.33000
H1402       H  0.63579430  0.83243137  0.39603860     0.29700
H1403       H  0.47184253  0.85237144  0.34386857     0.37600
H1404       H  0.47863436  0.89892983  0.33706011     0.33000
C1405       C  0.51629304  0.03485919  0.06477238    -0.20700
C1406       C  0.49829365  0.00439038  0.07925277     0.35500
C1407       C  0.51728177  0.97010055  0.08089176    -0.26700
C1408       C  0.55555437  0.96491878  0.07077982     0.01900
C1409       C  0.57562107  0.99742399  0.06135126     0.26700
C1410       C  0.55591924  0.03207172  0.05871896    -0.25800
N1411       N  0.45966269  0.00616565  0.09054946    -0.83200
H1412       H  0.50000815  0.94697690  0.08882436     0.12600
C1413       C  0.57318880  0.92582088  0.07206067     0.01900
N1414       N  0.61523882  0.99525972  0.05301670    -0.81800
H1415       H  0.57135627  0.05588795  0.05005769     0.17400
C1416       C  0.54665543  0.89569800  0.06940774    -0.26600
C1417       C  0.52943169  0.88359950  0.09665807     0.35400
C1418       C  0.54590314  0.89681190  0.12394697    -0.20600
C1419       C  0.58594952  0.90160694  0.12153721    -0.25900
C1420       C  0.59949326  0.92048049  0.09545413     0.26800
H1421       H  0.53227298  0.89027571  0.04833296     0.12500
N1422       N  0.49295771  0.86539539  0.09588333    -0.83200
H1423       H  0.60285378  0.90255086  0.14184750     0.17400
N1424       N  0.63634310  0.93824529  0.09451429    -0.81800
H1425       H  0.49466751  0.84063676  0.10833758     0.33000
H1426       H  0.47269992  0.88307413  0.10657528     0.37500
H1427       H  0.65122814  0.93225988  0.11420283     0.33000
H1428       H  0.65177695  0.92580944  0.07638592     0.29700
H1429       H  0.61842054  0.00389395  0.03053297     0.33000
H1430       H  0.62990996  0.01466163  0.06677623     0.29700
H1431       H  0.45045227  0.03424747  0.09354131     0.37600
H1432       H  0.44219980  0.99203720  0.07500225     0.33000
Zr1433     Zr  0.74666327  0.11543802  0.93869820     2.17500
O1434       O  0.72382900  0.15833834  0.90006882    -0.52200
O1435       O  0.68507653  0.08218914  0.93737091    -0.75400
O1436       O  0.75998932  0.09038193  0.88562365    -0.82200
O1437       O  0.71768441  0.18590404  0.50195348    -0.83900
O1438       O  0.81248750  0.05247494  0.88580034    -0.79500
O1439       O  0.71344465  0.17542632  0.95257283    -0.91200
O1440       O  0.68350036  0.04145923  0.97688034    -0.77100
O1441       O  0.76231587  0.05053257  0.94690965    -0.86600
O1442       O  0.72640647  0.09815909  0.49005337    -0.86300
O1443       O  0.81466198  0.11242805  0.93075770    -0.73100
O1444       O  0.78283169  0.15695539  0.97160100    -0.85200
Zr1445     Zr  0.84947392  0.06921997  0.52220737     2.26400
Zr1446     Zr  0.83005993  0.04714908  0.93906276     2.06300
Zr1447     Zr  0.76220823  0.13868187  0.52325336     2.10000
Zr1448     Zr  0.74453364  0.03384523  0.49730597     1.78800
O1449       O  0.77013193  0.20171428  0.54610666    -0.94000
O1450       O  0.73707933  0.97456765  0.97692460    -0.41800
O1451       O  0.78093394  0.07382316  0.53065836    -0.78500
O1452       O  0.81167619  0.02879159  0.48949143    -0.97100
O1453       O  0.86812528  0.08736776  0.97155648    -0.90400
O1454       O  0.83041305  0.13435287  0.51647145    -0.93300
C1455       C  0.66814881  0.05818175  0.95471132     1.00500
C1456       C  0.70471940  0.19363417  0.47542884     1.13400
C1457       C  0.78561940  0.06930957  0.87181574     1.04200
O1458       O  0.80894338  0.98327781  0.92496951    -0.95400
O1459       O  0.87574266  0.00195345  0.95618917    -0.91200
O1460       O  0.88145301  0.00764473  0.50644004    -0.84300
C1461       C  0.88705561  0.99117209  0.98207032     1.10800
O1462       O  0.85508525  0.20206035  0.92751746    -0.97400
Zr1463     Zr  0.85051976  0.15197919  0.96490672     1.88900
O1464       O  0.91147304  0.10246431  0.52610045    -0.74100
O1465       O  0.88732167  0.04522311  0.90670891    -0.53300
O1466       O  0.89907543  0.14500273  0.92482717    -0.98000
O1467       O  0.83911294  0.21483579  0.48711933    -0.55200
O1468       O  0.90451742  0.15458911  0.49714157    -0.74600
C1469       C  0.92310218  0.13472106  0.51611331     0.97800
O1470       O  0.86961815  0.03212904  0.56533935    -0.63400
O1471       O  0.70404129  0.12435456  0.55211293    -0.58200
O1472       O  0.83611349  0.09099196  0.57527128    -0.94900
O1473       O  0.78501856  0.13117558  0.57550175    -0.93300
O1474       O  0.69942363  0.03353041  0.54010721    -0.93700
O1475       O  0.74925408  0.98224556  0.53317048    -0.92400
C1476       C  0.81147623  0.11285545  0.58914480     1.16600
H1477       H  0.69947881  0.10233827  0.49377046     0.32600
H1478       H  0.81597088  0.00225358  0.49310763     0.43400
H1479       H  0.84286555  0.15068000  0.53112306     0.36900
H1480       H  0.82113045  0.11959564  0.91025269     0.33400
H1481       H  0.72831120  0.97425841  0.45441489     0.25200
H1482       H  0.88341336  0.02339447  0.89258309     0.31100
H1483       H  0.88537395  0.13774109  0.90615725     0.37000
H1484       H  0.68017781  0.05308680  0.53551747     0.31500
H1485       H  0.71235677  0.11898627  0.57293541     0.30400
H1486       H  0.79749092  0.20330415  0.55122477     0.32100
H1487       H  0.84571088  0.21691126  0.00486434     0.31000
H1488       H  0.76882020  0.99085288  0.54770124     0.35000
H1489       H  0.85988181  0.00602000  0.56177994     0.27800
H1490       H  0.70271358  0.14453922  0.89006810     0.32000
H1491       H  0.83182794  0.19896226  0.91528073     0.34800
H1492       H  0.69030263  0.14888815  0.55405163     0.27500
H1493       H  0.89773410  0.03005578  0.56314125     0.40300
H1494       H  0.78961442  0.98681943  0.90917435     0.30400
H1495       H  0.73672401  0.97813341  0.95470725     0.38000
H1496       H  0.81168180  0.21668258  0.49274999     0.29900
H1497       H  0.88575798  0.06791277  0.89383628     0.29900
H1498       H  0.74439247  0.15988551  0.88440963     0.30200
Zr1499     Zr  0.84900213  0.06693193  0.77215097     2.17500
O1500       O  0.89478597  0.05873681  0.81273846    -0.52200
O1501       O  0.87453184  0.00064679  0.76423090    -0.75400
O1502       O  0.81951035  0.06196825  0.82412134    -0.82200
O1503       O  0.91176275  0.13118910  0.72819234    -0.83900
O1504       O  0.75531483  0.07020009  0.82274506    -0.79500
O1505       O  0.91014666  0.09899104  0.77258749    -0.91200
O1506       O  0.85665984  0.98170601  0.71724031    -0.77100
O1507       O  0.79548088  0.03024705  0.75708422    -0.86600
O1508       O  0.85940141  0.05678898  0.71840237    -0.86300
O1509       O  0.79579986  0.11011254  0.78156386    -0.73100
O1510       O  0.84931442  0.12740474  0.74609582    -0.85200
Zr1511     Zr  0.75016383  0.11650255  0.68807647     2.26400
Zr1512     Zr  0.74218944  0.07182217  0.76766004     2.06300
Zr1513     Zr  0.85922166  0.11657825  0.69292814     2.10000
Zr1514     Zr  0.80536168  0.02035558  0.70339534     1.78800
O1515       O  0.87741777  0.17972838  0.67613182    -0.94000
O1516       O  0.77786006  0.95979418  0.71878312    -0.41800
O1517       O  0.80597158  0.07894410  0.67758159    -0.78500
O1518       O  0.74998291  0.05660208  0.71439739    -0.97100
O1519       O  0.74207168  0.13071474  0.74115744    -0.90400
O1520       O  0.80347198  0.15567343  0.70116294    -0.93300
C1521       C  0.87562442  0.97729481  0.74117165     1.00500
C1522       C  0.92539006  0.12263876  0.75434139     1.13400
C1523       C  0.78648484  0.06614127  0.83751290     1.04200
O1524       O  0.72002738  0.00839225  0.78055305    -0.95400
O1525       O  0.68283310  0.06951818  0.74008658    -0.91200
O1526       O  0.68798817  0.08567369  0.69040411    -0.84300
C1527       C  0.66927301  0.07286740  0.71326223     1.10800
O1528       O  0.83709897  0.19389157  0.79350285    -0.97400
Zr1529     Zr  0.79552422  0.16851461  0.75430407     1.88900
O1530       O  0.72154901  0.18011708  0.69436657    -0.74100
O1531       O  0.68897332  0.10138017  0.79560021    -0.53300
O1532       O  0.76273797  0.19479115  0.79921247    -0.98000
O1533       O  0.82913553  0.22475118  0.73622889    -0.55200
O1534       O  0.73997639  0.20516617  0.73954108    -0.74600
C1535       C  0.71896589  0.20508916  0.71602713     0.97800
O1536       O  0.70358509  0.11880289  0.64756362    -0.63400
O1537       O  0.91664048  0.09410450  0.66605049    -0.58200
O1538       O  0.77862488  0.12005154  0.63658623    -0.94900
O1539       O  0.84290794  0.11188954  0.63804392    -0.93300
O1540       O  0.83878456  0.00548426  0.65564985    -0.93700
O1541       O  0.76458797  0.99183299  0.66503040    -0.92400
C1542       C  0.81145431  0.11557286  0.62332941     1.16600
H1543       H  0.88368002  0.04471273  0.71395412     0.32600
H1544       H  0.73085798  0.03892852  0.70767316     0.43400
H1545       H  0.80407818  0.17844406  0.68919857     0.36900
H1546       H  0.79491114  0.11953281  0.80212066     0.33400
H1547       H  0.79175959  0.94036622  0.70634328     0.25200
H1548       H  0.67992871  0.08194957  0.81004026     0.31100
H1549       H  0.73568564  0.18718133  0.79709206     0.37000
H1550       H  0.85350962  0.02868975  0.65081973     0.31500
H1551       H  0.93328581  0.08416125  0.68197904     0.30400
H1552       H  0.89727940  0.17513489  0.66021264     0.32100
H1553       H  0.81300309  0.23519217  0.72017269     0.31000
H1554       H  0.75478807  0.01368967  0.65366511     0.35000
H1555       H  0.70863351  0.14275355  0.63672042     0.27800
H1556       H  0.88794020  0.03443275  0.82246247     0.32000
H1557       H  0.86317898  0.19265415  0.78445014     0.34800
H1558       H  0.90851800  0.07123953  0.65445271     0.27500
H1559       H  0.71052180  0.09819619  0.63284638     0.40300
H1560       H  0.70507458  0.01200389  0.79968287     0.30400
H1561       H  0.78683009  0.95594187  0.73967838     0.38000
H1562       H  0.85219437  0.21489342  0.72542961     0.29900
H1563       H  0.70069454  0.12144201  0.80843429     0.29900
H1564       H  0.88895694  0.07865751  0.82833605     0.30200
Zr1565     Zr  0.56100262  0.37164172  0.90979764     2.17500
O1566       O  0.55441365  0.42246194  0.87315602    -0.52200
O1567       O  0.49463740  0.39824841  0.91693812    -0.75400
O1568       O  0.57032307  0.35171989  0.85535676    -0.82200
O1569       O  0.59826459  0.43143995  0.97234285    -0.83900
O1570       O  0.57374951  0.28736585  0.85178225    -0.79500
O1571       O  0.59089862  0.43232374  0.92120364    -0.91200
O1572       O  0.45803316  0.34779093  0.92779168    -0.77100
O1573       O  0.52284049  0.31577578  0.91117413    -0.86600
O1574       O  0.53450922  0.37031722  0.96048865    -0.86300
O1575       O  0.60692034  0.32032527  0.90240863    -0.73100
O1576       O  0.61433140  0.36759721  0.94450587    -0.85200
Zr1577     Zr  0.58692601  0.25863732  0.98920581     2.26400
Zr1578     Zr  0.56754733  0.26488819  0.90310141     2.06300
Zr1579     Zr  0.58680452  0.36795832  0.99441838     2.10000
Zr1580     Zr  0.49640843  0.31405794  0.96173413     1.78800
O1581       O  0.64240741  0.38728859  0.52163060    -0.94000
O1582       O  0.45093479  0.26677247  0.94335998    -0.41800
O1583       O  0.54662479  0.31300303  0.99715593    -0.78500
O1584       O  0.53686236  0.26182206  0.95249643    -0.97100
O1585       O  0.61636548  0.25892607  0.93992500    -0.90400
O1586       O  0.62766825  0.31324886  0.98857572    -0.93300
C1587       C  0.46199381  0.38308835  0.92370349     1.00500
C1588       C  0.59994971  0.44826877  0.94638423     1.13400
C1589       C  0.57478689  0.32030081  0.83992566     1.04200
O1590       O  0.51432299  0.24190900  0.87314572    -0.95400
O1591       O  0.55476520  0.20055031  0.91589170    -0.91200
O1592       O  0.56624987  0.19796360  0.96664202    -0.84300
C1593       C  0.55550935  0.18335108  0.94109680     1.10800
O1594       O  0.69834760  0.36141921  0.91814654    -0.97400
Zr1595     Zr  0.65627879  0.31292549  0.93915889     1.88900
O1596       O  0.65035717  0.23049895  0.49219119    -0.74100
O1597       O  0.61505107  0.22514553  0.87643755    -0.53300
O1598       O  0.68836352  0.29140187  0.89237292    -0.98000
O1599       O  0.70846097  0.33104619  0.97254625    -0.55200
O1600       O  0.68320662  0.25033794  0.95183948    -0.74600
C1601       C  0.67846308  0.22775711  0.97433352     0.97800
O1602       O  0.57498206  0.20428894  0.52212096    -0.63400
O1603       O  0.54879896  0.41359157  0.52604913    -0.58200
O1604       O  0.57221946  0.27687985  0.54237559    -0.94900
O1605       O  0.57154584  0.34149643  0.54591713    -0.93300
O1606       O  0.45707597  0.35508090  0.99433269    -0.93700
O1607       O  0.46254761  0.27548160  0.50103735    -0.92400
C1608       C  0.56817000  0.30832542  0.55775674     1.16600
H1609       H  0.51975188  0.39265485  0.96612067     0.32600
H1610       H  0.51872659  0.24129461  0.95396306     0.43400
H1611       H  0.64504082  0.31130363  0.50389567     0.36900
H1612       H  0.62103265  0.32277403  0.88354195     0.33400
H1613       H  0.42548551  0.27744180  0.94873040     0.25200
H1614       H  0.63084812  0.24288355  0.86433800     0.31100
H1615       H  0.71035231  0.27617138  0.89898055     0.37000
H1616       H  0.47315734  0.36095351  0.01204395     0.31500
H1617       H  0.52705607  0.39920914  0.53481174     0.30400
H1618       H  0.65532507  0.40510298  0.50765098     0.32100
H1619       H  0.73209336  0.32710876  0.96019745     0.31000
H1620       H  0.48527613  0.27897698  0.01928848     0.35000
H1621       H  0.59449527  0.20651338  0.53802290     0.27800
H1622       H  0.53375815  0.41431839  0.85943237     0.32000
H1623       H  0.68118411  0.37845338  0.90708606     0.34800
H1624       H  0.56524701  0.41959837  0.54353234     0.27500
H1625       H  0.55023143  0.20910755  0.53273335     0.40300
H1626       H  0.52549021  0.22177204  0.85971102     0.30400
H1627       H  0.45270235  0.26816882  0.92095410     0.38000
H1628       H  0.70955059  0.31081421  0.98782414     0.29900
H1629       H  0.63238600  0.21616976  0.89227681     0.29900
H1630       H  0.57799115  0.42228259  0.86037508     0.30200
Zr1631     Zr  0.55275640  0.36389022  0.65869243     2.17500
O1632       O  0.54253595  0.41124207  0.61974546    -0.52200
O1633       O  0.48589172  0.38978437  0.66708867    -0.75400
O1634       O  0.55618745  0.33900314  0.60575192    -0.82200
O1635       O  0.58960771  0.43199413  0.71471595    -0.83900
O1636       O  0.56156103  0.27447373  0.60471877    -0.79500
O1637       O  0.58873680  0.42345973  0.66363750    -0.91200
O1638       O  0.45739354  0.35673291  0.70501663    -0.77100
O1639       O  0.51782681  0.30643612  0.66761167    -0.86600
O1640       O  0.53431168  0.36723663  0.71112717    -0.86300
O1641       O  0.59827058  0.31222976  0.65034720    -0.73100
O1642       O  0.61069684  0.36647461  0.68810440    -0.85200
Zr1643     Zr  0.59889494  0.26165549  0.74082288     2.26400
Zr1644     Zr  0.56244732  0.25498932  0.65849367     2.06300
Zr1645     Zr  0.59080833  0.37053600  0.74013028     2.10000
Zr1646     Zr  0.50017004  0.30994759  0.72047666     1.78800
O1647       O  0.65153208  0.39621049  0.75705740    -0.94000
O1648       O  0.44644411  0.27431526  0.69992718    -0.41800
O1649       O  0.55601774  0.31361843  0.74996501    -0.78500
O1650       O  0.54158132  0.25841450  0.71084655    -0.97100
O1651       O  0.61859729  0.25733328  0.68864326    -0.90400
O1652       O  0.63484018  0.31844436  0.73301500    -0.93300
C1653       C  0.45775190  0.38329386  0.68597015     1.00500
C1654       C  0.59607563  0.44345889  0.68744148     1.13400
C1655       C  0.56051525  0.30689139  0.59137615     1.04200
O1656       O  0.50730138  0.22407108  0.63590432    -0.95400
O1657       O  0.55470161  0.19310910  0.68347987    -0.91200
O1658       O  0.57347525  0.19797979  0.73275403    -0.84300
C1659       C  0.55899560  0.17962047  0.71034236     1.10800
O1660       O  0.68514389  0.36092891  0.64888726    -0.97400
Zr1661     Zr  0.65414385  0.31388020  0.68089492     1.88900
O1662       O  0.66563869  0.23924602  0.73697087    -0.74100
O1663       O  0.60657858  0.21276635  0.63087291    -0.53300
O1664       O  0.69114714  0.29662122  0.63531370    -0.98000
O1665       O  0.70633387  0.33841131  0.71147422    -0.55200
O1666       O  0.68699667  0.25409686  0.68996970    -0.74600
C1667       C  0.68898977  0.23477997  0.71426953     0.97800
O1668       O  0.60921863  0.21889799  0.78304619    -0.63400
O1669       O  0.55670338  0.41601814  0.77311326    -0.58200
O1670       O  0.58635493  0.28872808  0.79240295    -0.94900
O1671       O  0.58479431  0.35338619  0.79348087    -0.93300
O1672       O  0.47332738  0.34309433  0.76498568    -0.93700
O1673       O  0.47316885  0.26617880  0.75743436    -0.92400
C1674       C  0.58265669  0.32110333  0.80661556     1.16600
H1675       H  0.51974398  0.38981144  0.71633923     0.32600
H1676       H  0.52401535  0.23842867  0.71638391     0.43400
H1677       H  0.65566332  0.31987757  0.74707927     0.36900
H1678       H  0.60999559  0.31282989  0.63036985     0.33400
H1679       H  0.42417426  0.28220170  0.71272692     0.25200
H1680       H  0.62695618  0.22973700  0.62313594     0.31100
H1681       H  0.67305223  0.28311252  0.62192912     0.37000
H1682       H  0.49566483  0.35073826  0.77710698     0.31500
H1683       H  0.57503654  0.43703104  0.77654415     0.30400
H1684       H  0.65615598  0.41863650  0.74426745     0.32100
H1685       H  0.70990347  0.36510098  0.70526616     0.31000
H1686       H  0.48922051  0.26928605  0.77557105     0.35000
H1687       H  0.62166912  0.19592580  0.77408625     0.27800
H1688       H  0.53148906  0.43366772  0.63062348     0.32000
H1689       H  0.66388152  0.37402755  0.63890944     0.34800
H1690       H  0.53665638  0.42711653  0.76046035     0.27500
H1691       H  0.62958355  0.23096463  0.79518746     0.40300
H1692       H  0.51711989  0.21283124  0.61651570     0.30400
H1693       H  0.44167783  0.28570536  0.67997170     0.38000
H1694       H  0.72928687  0.32491788  0.70344321     0.29900
H1695       H  0.61907383  0.19776426  0.64667766     0.29900
H1696       H  0.52118313  0.40146379  0.60743472     0.30200
Zr1697     Zr  0.44889446  0.97417251  0.91901079     2.17500
O1698       O  0.41140904  0.98283337  0.87376411    -0.52200
O1699       O  0.44533056  0.90684128  0.92612040    -0.75400
O1700       O  0.48860137  0.92481540  0.89378182    -0.82200
O1701       O  0.38232113  0.98994495  0.98630419    -0.83900
O1702       O  0.54800309  0.94900547  0.88596467    -0.79500
O1703       O  0.38452177  0.96356418  0.93880531    -0.91200
O1704       O  0.47697406  0.89537224  0.96936736    -0.77100
O1705       O  0.50165453  0.99650696  0.94531305    -0.86600
O1706       O  0.45018858  0.96892469  0.97273447    -0.86300
O1707       O  0.49093213  0.01919833  0.89492744    -0.73100
O1708       O  0.42909427  0.03587347  0.93695943    -0.85200
Zr1709     Zr  0.53885070  0.06127818  0.48224720     2.26400
Zr1710     Zr  0.55447198  0.00855500  0.91300941     2.06300
Zr1711     Zr  0.43397073  0.03304243  0.49110854     2.10000
Zr1712     Zr  0.51364423  0.95241942  0.98259074     1.78800
O1713       O  0.39226889  0.08621034  0.48009004    -0.94000
O1714       O  0.54513123  0.90978404  0.94676113    -0.41800
O1715       O  0.49760563  0.01250172  0.50362775    -0.78500
O1716       O  0.55897585  0.99992361  0.96649224    -0.97100
O1717       O  0.53825045  0.06973496  0.92977512    -0.90400
O1718       O  0.47642459  0.08026070  0.97019801    -0.93300
C1719       C  0.45525632  0.88523889  0.94753907     1.00500
C1720       C  0.36871667  0.96894989  0.96511241     1.13400
C1721       C  0.52354999  0.92203802  0.88462901     1.04200
O1722       O  0.60355571  0.95971489  0.90813832    -0.95400
O1723       O  0.61411634  0.04136973  0.92539476    -0.91200
O1724       O  0.60735110  0.05302868  0.97589238    -0.84300
C1725       C  0.62744548  0.05084820  0.95138821     1.10800
O1726       O  0.42103027  0.09693291  0.88301388    -0.97400
Zr1727     Zr  0.47376541  0.08158124  0.91598907     1.88900
O1728       O  0.54358276  0.12574131  0.46624576    -0.74100
O1729       O  0.56336611  0.05448984  0.87281863    -0.53300
O1730       O  0.48747285  0.09125025  0.86222437    -0.98000
O1731       O  0.43875460  0.13779025  0.93429282    -0.55200
O1732       O  0.51872182  0.13387217  0.91986898    -0.74600
C1733       C  0.53956183  0.14552854  0.94178514     0.97800
O1734       O  0.58776757  0.09468610  0.51200729    -0.63400
O1735       O  0.39138902  0.03834822  0.53553746    -0.58200
O1736       O  0.50970366  0.08510119  0.52911987    -0.94900
O1737       O  0.45621503  0.05610837  0.54082492    -0.93300
O1738       O  0.47958753  0.93242718  0.53029478    -0.93700
O1739       O  0.56788278  0.93460568  0.50844514    -0.92400
C1740       C  0.49135057  0.06292523  0.54643253     1.16600
H1741       H  0.43436005  0.94918396  0.98114222     0.32600
H1742       H  0.58394693  0.99162054  0.97206112     0.43400
H1743       H  0.46989859  0.10445933  0.47798641     0.36900
H1744       H  0.48962447  0.01766679  0.87304494     0.33400
H1745       H  0.57189091  0.91866327  0.94734003     0.25200
H1746       H  0.59102394  0.05988832  0.87098732     0.31100
H1747       H  0.50514468  0.11320414  0.86156072     0.37000
H1748       H  0.45261812  0.94058011  0.52949321     0.31500
H1749       H  0.36630998  0.04616267  0.52775467     0.30400
H1750       H  0.36898219  0.07417621  0.47185121     0.32100
H1751       H  0.41140390  0.13070443  0.93435553     0.31000
H1752       H  0.56950071  0.90651909  0.50761803     0.35000
H1753       H  0.60128141  0.11227929  0.49814954     0.27800
H1754       H  0.39446939  0.00462644  0.87887377     0.32000
H1755       H  0.40346524  0.07496475  0.88441758     0.34800
H1756       H  0.38733042  0.01205822  0.54258018     0.27500
H1757       H  0.57412579  0.11210855  0.52637963     0.40300
H1758       H  0.62345413  0.96723510  0.92273142     0.30400
H1759       H  0.54588176  0.88474105  0.95663166     0.38000
H1760       H  0.44163492  0.15669062  0.91802909     0.29900
H1761       H  0.55637966  0.04089635  0.85403599     0.29900
H1762       H  0.39408984  0.96057055  0.87323800     0.30200
Zr1763     Zr  0.45266565  0.97679103  0.68264076     2.17500
O1764       O  0.40573069  0.99569118  0.64583228    -0.52200
O1765       O  0.43930282  0.91115613  0.67955358    -0.75400
O1766       O  0.48824761  0.93385255  0.64648438    -0.82200
O1767       O  0.39603651  0.97874412  0.75860265    -0.83900
O1768       O  0.54839364  0.95763632  0.64732635    -0.79500
O1769       O  0.39254342  0.96516213  0.70797601    -0.91200
O1770       O  0.48965683  0.89027659  0.70606371    -0.77100
O1771       O  0.51555630  0.97368723  0.68664206    -0.86600
O1772       O  0.46707435  0.95359312  0.73166991    -0.86300
O1773       O  0.48413727  0.03420956  0.66681291    -0.73100
O1774       O  0.43816405  0.02416041  0.72083871    -0.85200
Zr1775     Zr  0.54924064  0.05382285  0.75065626     2.26400
Zr1776     Zr  0.55245584  0.02145372  0.66948326     2.06300
Zr1777     Zr  0.45970072  0.00287573  0.76954252     2.10000
Zr1778     Zr  0.53297688  0.93971465  0.72551076     1.78800
O1779       O  0.43228711  0.04624373  0.80780925    -0.94000
O1780       O  0.59733895  0.92334365  0.70653958    -0.41800
O1781       O  0.52262456  0.99246587  0.75783327    -0.78500
O1782       O  0.56916154  0.99947341  0.71860883    -0.97100
O1783       O  0.53332297  0.07200068  0.70161303    -0.90400
O1784       O  0.48253364  0.06486903  0.75557495    -0.93300
C1785       C  0.45832434  0.88510747  0.69187147     1.00500
C1786       C  0.37829255  0.96706181  0.73494309     1.13400
C1787       C  0.52448984  0.93095506  0.64063094     1.04200
O1788       O  0.60130744  0.00620379  0.63108297    -0.95400
O1789       O  0.61426021  0.05125379  0.68493283    -0.91200
O1790       O  0.61280150  0.05916478  0.73604776    -0.84300
C1791       C  0.62962159  0.06065968  0.71048287     1.10800
O1792       O  0.39838009  0.08953755  0.69587015    -0.97400
Zr1793     Zr  0.46649742  0.08237072  0.70446853     1.88900
O1794       O  0.55552831  0.12178067  0.73780477    -0.74100
O1795       O  0.54466123  0.06463942  0.62743594    -0.53300
O1796       O  0.45087967  0.10719375  0.65495820    -0.98000
O1797       O  0.44021714  0.13651979  0.73331476    -0.55200
O1798       O  0.51322449  0.13284622  0.70071490    -0.74600
C1799       C  0.54185265  0.14255185  0.71676786     0.97800
O1800       O  0.56704214  0.08698707  0.79742448    -0.63400
O1801       O  0.43981285  0.95813290  0.80833339    -0.58200
O1802       O  0.56524117  0.02856756  0.79910194    -0.94900
O1803       O  0.51959110  0.98355386  0.79834343    -0.93300
O1804       O  0.52099287  0.91175294  0.77490331    -0.93700
O1805       O  0.56324068  0.87799202  0.71650355    -0.92400
C1806       C  0.55368187  0.99555322  0.80599911     1.16600
H1807       H  0.45182813  0.93211397  0.73805092     0.32600
H1808       H  0.59606720  0.99458855  0.72006761     0.43400
H1809       H  0.47672912  0.08457011  0.77058585     0.36900
H1810       H  0.47668908  0.04072234  0.64666970     0.33400
H1811       H  0.60123861  0.93818293  0.68786451     0.25200
H1812       H  0.56971493  0.07753163  0.62549068     0.31100
H1813       H  0.44323695  0.13392898  0.65901873     0.37000
H1814       H  0.50152513  0.89191590  0.77104229     0.31500
H1815       H  0.41307670  0.96484172  0.81374409     0.30400
H1816       H  0.40437111  0.04228713  0.80639968     0.32100
H1817       H  0.43366351  0.15527208  0.71774952     0.31000
H1818       H  0.55029708  0.86050577  0.73076694     0.35000
H1819       H  0.59166995  0.09956415  0.79255065     0.27800
H1820       H  0.38417890  0.00638153  0.65806328     0.32000
H1821       H  0.39004228  0.06463987  0.68753605     0.34800
H1822       H  0.43793320  0.93342799  0.79730452     0.27500
H1823       H  0.54851627  0.10811107  0.79994555     0.40300
H1824       H  0.62224203  0.99428255  0.64232226     0.30400
H1825       H  0.61618394  0.93385325  0.72088662     0.38000
H1826       H  0.46204895  0.14808704  0.74404323     0.29900
H1827       H  0.52728873  0.08487854  0.63527371     0.29900
H1828       H  0.39576505  0.97142930  0.63741624     0.30200
Zr1829     Zr  0.44205222  0.65789608  0.89590865     2.17500
O1830       O  0.45075385  0.61346570  0.85317063    -0.52200
O1831       O  0.50741613  0.63147420  0.89864709    -0.75400
O1832       O  0.43711240  0.68391466  0.84408512    -0.82200
O1833       O  0.39987880  0.59634477  0.95643274    -0.83900
O1834       O  0.43227063  0.74856006  0.84495385    -0.79500
O1835       O  0.40571262  0.59871214  0.90497647    -0.91200
O1836       O  0.53408833  0.68734120  0.90685243    -0.77100
O1837       O  0.47841091  0.71515704  0.90165681    -0.86600
O1838       O  0.46812842  0.65664811  0.94625296    -0.86300
O1839       O  0.39718099  0.71007459  0.89212283    -0.73100
O1840       O  0.38933234  0.65814738  0.93188276    -0.85200
Zr1841     Zr  0.40820712  0.76585565  0.98307057     2.26400
Zr1842     Zr  0.43464899  0.76688752  0.89830855     2.06300
Zr1843     Zr  0.41506917  0.65692774  0.98138502     2.10000
Zr1844     Zr  0.50399814  0.71418268  0.95137815     1.78800
O1845       O  0.35501155  0.63897985  0.00601816    -0.94000
O1846       O  0.55550856  0.75734959  0.93640116    -0.41800
O1847       O  0.45173756  0.71375465  0.98681409    -0.78500
O1848       O  0.46229145  0.76684406  0.94791133    -0.97100
O1849       O  0.38199682  0.76628183  0.93361798    -0.90400
O1850       O  0.37113650  0.70916526  0.97821269    -0.93300
C1851       C  0.53693366  0.65156241  0.90450163     1.00500
C1852       C  0.39485864  0.58228001  0.92958603     1.13400
C1853       C  0.43296223  0.71625263  0.83090316     1.04200
O1854       O  0.49447148  0.78917554  0.87590599    -0.95400
O1855       O  0.44018749  0.83092926  0.91921559    -0.91200
O1856       O  0.43410319  0.82870107  0.97081355    -0.84300
C1857       C  0.44181268  0.84602010  0.94591462     1.10800
O1858       O  0.31416416  0.65631315  0.90292738    -0.97400
Zr1859     Zr  0.34545319  0.70976288  0.92830854     1.88900
O1860       O  0.34248924  0.79331578  0.98160653    -0.74100
O1861       O  0.39383365  0.80916983  0.87005574    -0.53300
O1862       O  0.31572166  0.73267387  0.88253829    -0.98000
O1863       O  0.29077732  0.68509275  0.95695783    -0.55200
O1864       O  0.30913325  0.76577427  0.94331587    -0.74600
C1865       C  0.31314706  0.79114523  0.96419953     0.97800
O1866       O  0.40339330  0.80414919  0.02980432    -0.63400
O1867       O  0.44913197  0.60812432  0.00874600    -0.58200
O1868       O  0.42343713  0.74113552  0.03408627    -0.94900
O1869       O  0.42788974  0.67653552  0.03365837    -0.93300
O1870       O  0.53621008  0.66677654  0.98101644    -0.93700
O1871       O  0.54113242  0.74433565  0.99139883    -0.92400
C1872       C  0.42354386  0.71030079  0.54777461     1.16600
H1873       H  0.48327681  0.63428081  0.94970647     0.32600
H1874       H  0.47992811  0.78748221  0.95101982     0.43400
H1875       H  0.35162733  0.70878660  0.99397456     0.36900
H1876       H  0.38419079  0.70924620  0.87304715     0.33400
H1877       H  0.55600993  0.75685558  0.91393298     0.25200
H1878       H  0.37885673  0.82367352  0.88564221     0.31100
H1879       H  0.28963905  0.72181007  0.88287066     0.37000
H1880       H  0.52429854  0.66903727  0.00153209     0.31500
H1881       H  0.43154172  0.58609487  0.00949235     0.30400
H1882       H  0.35336197  0.61105555  0.00323710     0.32100
H1883       H  0.26824593  0.69490931  0.94635367     0.31000
H1884       H  0.52266838  0.74819565  0.00847399     0.35000
H1885       H  0.42516357  0.82210015  0.02910157     0.27800
H1886       H  0.42468180  0.60620766  0.84696730     0.32000
H1887       H  0.32163143  0.63354942  0.91430255     0.34800
H1888       H  0.47025994  0.59974002  0.99497774     0.27500
H1889       H  0.38050363  0.82029500  0.02770596     0.40300
H1890       H  0.50739926  0.80288185  0.89262954     0.30400
H1891       H  0.54666864  0.78333309  0.94194171     0.38000
H1892       H  0.29040811  0.69909705  0.97664005     0.29900
H1893       H  0.41144651  0.82808192  0.86105077     0.29900
H1894       H  0.46144468  0.59013235  0.86193331     0.30200
Zr1895     Zr  0.44142687  0.65877651  0.64838505     2.17500
O1896       O  0.45307164  0.61083249  0.60850750    -0.52200
O1897       O  0.50648454  0.63246041  0.65486999    -0.75400
O1898       O  0.43471908  0.67980854  0.59510785    -0.82200
O1899       O  0.39848750  0.60001772  0.70981122    -0.83900
O1900       O  0.43336692  0.74448143  0.59384193    -0.79500
O1901       O  0.40568787  0.60029675  0.65835291    -0.91200
O1902       O  0.53963991  0.68507590  0.66531053    -0.77100
O1903       O  0.47905217  0.71501882  0.65295612    -0.86600
O1904       O  0.46557103  0.65944604  0.69925023    -0.86300
O1905       O  0.39678585  0.71070485  0.64240231    -0.73100
O1906       O  0.38738134  0.66147673  0.68339203    -0.85200
Zr1907     Zr  0.40846963  0.77055119  0.73188991     2.26400
Zr1908     Zr  0.43549096  0.76643634  0.64652873     2.06300
Zr1909     Zr  0.41187375  0.66181479  0.73326500     2.10000
Zr1910     Zr  0.50246667  0.71626383  0.70373271     1.78800
O1911       O  0.35218165  0.64465177  0.75881878    -0.94000
O1912       O  0.55062031  0.76367602  0.69067775    -0.41800
O1913       O  0.44995083  0.71776156  0.73845556    -0.78500
O1914       O  0.46188725  0.76834000  0.69649852    -0.97100
O1915       O  0.38333591  0.76934178  0.68211837    -0.90400
O1916       O  0.36929625  0.71495942  0.72861652    -0.93300
C1917       C  0.53761522  0.64932520  0.66225813     1.00500
C1918       C  0.39453082  0.58488551  0.68318428     1.13400
C1919       C  0.43177971  0.71150523  0.58083883     1.04200
O1920       O  0.49516745  0.79008928  0.62501646    -0.95400
O1921       O  0.44174622  0.83146752  0.66386737    -0.91200
O1922       O  0.43497633  0.83116457  0.71556831    -0.84300
C1923       C  0.44334902  0.84712344  0.69025382     1.10800
O1924       O  0.31477799  0.65962670  0.65376528    -0.97400
Zr1925     Zr  0.34485074  0.71419032  0.67844487     1.88900
O1926       O  0.34371854  0.79785605  0.73221957    -0.74100
O1927       O  0.39107563  0.80524455  0.61851203    -0.53300
O1928       O  0.31220744  0.73598372  0.63369274    -0.98000
O1929       O  0.29003758  0.69248784  0.70844861    -0.55200
O1930       O  0.31271934  0.77387713  0.69132257    -0.74600
C1931       C  0.31625986  0.79812482  0.71316888     0.97800
O1932       O  0.41108622  0.82143527  0.77031794    -0.63400
O1933       O  0.44536382  0.61469479  0.76280349    -0.58200
O1934       O  0.42022984  0.74759545  0.78414511    -0.94900
O1935       O  0.42522585  0.68311176  0.78444868    -0.93300
O1936       O  0.53326692  0.67241299  0.73744415    -0.93700
O1937       O  0.53602961  0.74770986  0.74509271    -0.92400
C1938       C  0.42595202  0.71580121  0.79776503     1.16600
H1939       H  0.48004217  0.63712458  0.70403896     0.32600
H1940       H  0.48026332  0.78873177  0.69875742     0.43400
H1941       H  0.34938772  0.71557084  0.74406881     0.36900
H1942       H  0.38358858  0.70912544  0.62341512     0.33400
H1943       H  0.57503051  0.74950922  0.68931884     0.25200
H1944       H  0.37674248  0.82026784  0.63417112     0.31100
H1945       H  0.28475885  0.73540870  0.63948024     0.37000
H1946       H  0.51451898  0.66885547  0.75425647     0.31500
H1947       H  0.42722204  0.59328058  0.76501960     0.30400
H1948       H  0.35887271  0.64193006  0.78039686     0.32100
H1949       H  0.26880849  0.69079456  0.69396079     0.31000
H1950       H  0.51978198  0.76983815  0.75082590     0.35000
H1951       H  0.39154318  0.81509848  0.78595720     0.27800
H1952       H  0.46105530  0.58771676  0.61920150     0.32000
H1953       H  0.33453409  0.64945344  0.63943091     0.34800
H1954       H  0.46599183  0.60459090  0.74929045     0.27500
H1955       H  0.43592885  0.81862626  0.78041275     0.40300
H1956       H  0.50611358  0.76843811  0.61312466     0.30400
H1957       H  0.54524197  0.77037498  0.66947001     0.38000
H1958       H  0.28306507  0.71432125  0.72192904     0.29900
H1959       H  0.40725387  0.82408203  0.60788246     0.29900
H1960       H  0.47662775  0.61925221  0.59778564     0.30200
Zr1961     Zr  0.14668129  0.95473745  0.52983887     2.17500
O1962       O  0.09937910  0.96796486  0.57013063    -0.52200
O1963       O  0.12157367  0.02137970  0.52404333    -0.75400
O1964       O  0.17315727  0.95025697  0.58253441    -0.82200
O1965       O  0.08599333  0.89682485  0.97557662    -0.83900
O1966       O  0.23810159  0.94700144  0.58103937    -0.79500
O1967       O  0.08565338  0.92099631  0.52543228    -0.91200
O1968       O  0.14859244  0.04578069  0.48148733    -0.77100
O1969       O  0.20281249  0.99099267  0.51931786    -0.86600
O1970       O  0.14420097  0.97179429  0.97647031    -0.86300
O1971       O  0.19916220  0.91061064  0.53587180    -0.73100
O1972       O  0.14719232  0.89662954  0.99707119    -0.85200
Zr1973     Zr  0.25179453  0.90965762  0.94229528     2.26400
Zr1974     Zr  0.25515217  0.94809557  0.52657177     2.06300
Zr1975     Zr  0.14246890  0.91523382  0.94538840     2.10000
Zr1976     Zr  0.20127112  0.00702268  0.96678958     1.78800
O1977       O  0.12254510  0.85979759  0.91564048    -0.94000
O1978       O  0.24097133  0.05853883  0.98644339    -0.41800
O1979       O  0.19873986  0.95090892  0.93678770    -0.78500
O1980       O  0.25372879  0.96686515  0.97377125    -0.97100
O1981       O  0.25556802  0.88999677  0.99353405    -0.90400
O1982       O  0.19558203  0.87222070  0.95018183    -0.93300
C1983       C  0.12481648  0.04717449  0.50347528     1.00500
C1984       C  0.07059304  0.90287727  0.00207035     1.13400
C1985       C  0.20593313  0.94663958  0.59570859     1.04200
O1986       O  0.27730030  0.01044096  0.54355589    -0.95400
O1987       O  0.31701684  0.95420668  0.50041542    -0.91200
O1988       O  0.31414915  0.93717794  0.94896159    -0.84300
C1989       C  0.33225572  0.95081380  0.97163783     1.10800
O1990       O  0.14894552  0.82980581  0.53839509    -0.97400
Zr1991     Zr  0.19967295  0.85332438  0.00187628     1.88900
O1992       O  0.28162428  0.84641358  0.94687682    -0.74100
O1993       O  0.30098309  0.91656759  0.55867481    -0.53300
O1994       O  0.21782855  0.82377444  0.55088928    -0.98000
O1995       O  0.17328210  0.79974288  0.97305932    -0.55200
O1996       O  0.25852065  0.81844593  0.98938166    -0.74600
C1997       C  0.28262334  0.82049040  0.96715690     0.97800
O1998       O  0.29015194  0.89937395  0.89595559    -0.63400
O1999       O  0.08916727  0.94939934  0.92368012    -0.58200
O2000       O  0.22750343  0.92545164  0.89179358    -0.94900
O2001       O  0.16282809  0.93137368  0.89304606    -0.93300
O2002       O  0.16837783  0.03506215  0.92444229    -0.93700
O2003       O  0.24370494  0.02985635  0.92648021    -0.92400
C2004       C  0.19556153  0.93304068  0.87905364     1.16600
H2005       H  0.12144035  0.98613207  0.97251511     0.32600
H2006       H  0.27327713  0.98497163  0.96853936     0.43400
H2007       H  0.19471404  0.85106344  0.93593308     0.36900
H2008       H  0.19901745  0.89874217  0.55536037     0.33400
H2009       H  0.22432056  0.08127310  0.98693503     0.25200
H2010       H  0.28916489  0.89171039  0.56329089     0.31100
H2011       H  0.24040838  0.83829088  0.55771652     0.37000
H2012       H  0.14646885  0.01794116  0.92063436     0.31500
H2013       H  0.07628812  0.93048812  0.91047753     0.30400
H2014       H  0.11115153  0.87031730  0.89719057     0.32100
H2015       H  0.14769876  0.79467104  0.98200463     0.31000
H2016       H  0.24108433  0.05788968  0.92681400     0.35000
H2017       H  0.30088457  0.92460313  0.89088975     0.27800
H2018       H  0.07748875  0.97984056  0.56001293     0.32000
H2019       H  0.13569242  0.85262833  0.54684719     0.34800
H2020       H  0.07083815  0.95409277  0.94071763     0.27500
H2021       H  0.31256505  0.88439397  0.90205546     0.40300
H2022       H  0.30320129  0.00577677  0.55130764     0.30400
H2023       H  0.22507024  0.06398777  0.50731990     0.38000
H2024       H  0.18893920  0.77761027  0.97865596     0.29900
H2025       H  0.32319226  0.91009961  0.54536617     0.29900
H2026       H  0.11032655  0.98898714  0.58244134     0.30200
Zr2027     Zr  0.14755998  0.95685880  0.77850901     2.17500
O2028       O  0.10265903  0.96554065  0.82124821    -0.52200
O2029       O  0.12091097  0.02285557  0.77358621    -0.75400
O2030       O  0.16602874  0.94886068  0.83214960    -0.82200
O2031       O  0.09270236  0.90486494  0.71999091    -0.83900
O2032       O  0.23086666  0.94610984  0.83382477    -0.79500
O2033       O  0.08665986  0.92452900  0.76919683    -0.91200
O2034       O  0.15447476  0.05255831  0.73631961    -0.77100
O2035       O  0.20391257  0.99494706  0.77339018    -0.86600
O2036       O  0.14905459  0.97774985  0.72710193    -0.86300
O2037       O  0.20013921  0.91289959  0.78528072    -0.73100
O2038       O  0.15115116  0.90107113  0.74529784    -0.85200
Zr2039     Zr  0.26058357  0.92030423  0.69632711     2.26400
Zr2040     Zr  0.25586684  0.95228609  0.78161408     2.06300
Zr2041     Zr  0.15156912  0.92331469  0.69446280     2.10000
Zr2042     Zr  0.20611418  0.01439155  0.72154127     1.78800
O2043       O  0.12945704  0.86848236  0.66511533    -0.94000
O2044       O  0.23419619  0.06840357  0.74853507    -0.41800
O2045       O  0.20757096  0.96087593  0.68834365    -0.78500
O2046       O  0.25897504  0.97527435  0.73043682    -0.97100
O2047       O  0.25946451  0.89837896  0.74738735    -0.90400
O2048       O  0.20498211  0.88135587  0.70041080    -0.93300
C2049       C  0.12714535  0.05093690  0.75546070     1.00500
C2050       C  0.07434021  0.90704302  0.74555238     1.13400
C2051       C  0.19744233  0.94426609  0.84654357     1.04200
O2052       O  0.27336674  0.01306483  0.80488282    -0.95400
O2053       O  0.32159550  0.95988220  0.76421885    -0.91200
O2054       O  0.32214812  0.94352499  0.71388058    -0.84300
C2055       C  0.33835099  0.95558797  0.73819686     1.10800
O2056       O  0.15640137  0.82384164  0.77957844    -0.97400
Zr2057     Zr  0.20452951  0.85941776  0.75126065     1.88900
O2058       O  0.28661198  0.85502352  0.69691141    -0.74100
O2059       O  0.30341312  0.91746079  0.80964904    -0.53300
O2060       O  0.22700592  0.82675631  0.79583180    -0.98000
O2061       O  0.18140271  0.80858586  0.71804969    -0.55200
O2062       O  0.26352598  0.82611828  0.73902540    -0.74600
C2063       C  0.28698350  0.82825770  0.71651989     0.97800
O2064       O  0.30886954  0.91952031  0.65562642    -0.63400
O2065       O  0.10084360  0.96176890  0.67337803    -0.58200
O2066       O  0.23825434  0.93378964  0.64326434    -0.94900
O2067       O  0.17327994  0.93577910  0.64263224    -0.93300
O2068       O  0.18017634  0.04064434  0.67555580    -0.93700
O2069       O  0.25314869  0.04520478  0.68881809    -0.92400
C2070       C  0.20610358  0.93846109  0.62927945     1.16600
H2071       H  0.12610186  0.99117390  0.72198941     0.32600
H2072       H  0.27973679  0.99290911  0.72740822     0.43400
H2073       H  0.20567680  0.86119067  0.68528444     0.36900
H2074       H  0.19787620  0.89938116  0.80402969     0.33400
H2075       H  0.22983174  0.09046900  0.73540261     0.25200
H2076       H  0.30322728  0.92906358  0.83028430     0.31100
H2077       H  0.24312325  0.84556677  0.80657668     0.37000
H2078       H  0.16174007  0.02129915  0.66836117     0.31500
H2079       H  0.11140653  0.97225624  0.65430607     0.30400
H2080       H  0.14890916  0.86456057  0.64876698     0.32100
H2081       H  0.15390050  0.81402255  0.71566813     0.31000
H2082       H  0.26236558  0.02468028  0.67483728     0.35000
H2083       H  0.32005208  0.94539834  0.65563009     0.27800
H2084       H  0.09160967  0.94016520  0.82534287     0.32000
H2085       H  0.13163418  0.83378481  0.77272579     0.34800
H2086       H  0.08129601  0.94321623  0.66675066     0.27500
H2087       H  0.32959160  0.90293738  0.66273867     0.40300
H2088       H  0.28258985  0.02864745  0.78775280     0.30400
H2089       H  0.21718883  0.07307279  0.76642603     0.38000
H2090       H  0.18212791  0.78535369  0.73036845     0.29900
H2091       H  0.29242765  0.89180304  0.81231079     0.29900
H2092       H  0.08120801  0.98048943  0.81332586     0.30200
Zr2093     Zr  0.93649064  0.87102246  0.51920396     2.17500
O2094       O  0.92404508  0.92190770  0.55650720    -0.52200
O2095       O  0.00238489  0.89772579  0.51681854    -0.75400
O2096       O  0.93210908  0.84865531  0.57269256    -0.82200
O2097       O  0.90245835  0.93378544  0.95601565    -0.83900
O2098       O  0.93109630  0.78405368  0.57349510    -0.79500
O2099       O  0.91033611  0.93313862  0.50663368    -0.91200
O2100       O  0.03592931  0.84545069  0.50511684    -0.77100
O2101       O  0.97783605  0.81727501  0.51486762    -0.86600
O2102       O  0.96200176  0.87435580  0.96753958    -0.86300
O2103       O  0.89445854  0.81700277  0.52521820    -0.73100
O2104       O  0.88307928  0.86967955  0.98413800    -0.85200
Zr2105     Zr  0.91006901  0.76024013  0.93609919     2.26400
Zr2106     Zr  0.93662865  0.76371709  0.52096142     2.06300
Zr2107     Zr  0.90962391  0.86948545  0.93358680     2.10000
Zr2108     Zr  0.00139304  0.81922505  0.96273199     1.78800
O2109       O  0.84996813  0.88532440  0.90927370    -0.94000
O2110       O  0.05134212  0.77224992  0.96991538    -0.41800
O2111       O  0.94955789  0.81495998  0.92916257    -0.78500
O2112       O  0.96325835  0.76408531  0.97011478    -0.97100
O2113       O  0.88330384  0.76033060  0.98615236    -0.90400
O2114       O  0.86896471  0.81475480  0.93943035    -0.93300
C2115       C  0.03420524  0.88094442  0.51018816     1.00500
C2116       C  0.90253639  0.95175188  0.98186631     1.13400
C2117       C  0.92913377  0.81669773  0.58676049     1.04200
O2118       O  0.99632295  0.74329555  0.54292615    -0.95400
O2119       O  0.94611843  0.69922315  0.50563692    -0.91200
O2120       O  0.93208064  0.69827934  0.95396758    -0.84300
C2121       C  0.94346242  0.68343113  0.97878415     1.10800
O2122       O  0.80682751  0.85573147  0.51994446    -0.97400
Zr2123     Zr  0.84286223  0.81426983  0.98977446     1.88900
O2124       O  0.84558619  0.73238145  0.93348535    -0.74100
O2125       O  0.89589994  0.72342848  0.55231917    -0.53300
O2126       O  0.80997645  0.78462852  0.53351799    -0.98000
O2127       O  0.78993700  0.83520360  0.95902799    -0.55200
O2128       O  0.81330055  0.75355422  0.97554121    -0.74600
C2129       C  0.81777900  0.73027744  0.95293596     0.97800
O2130       O  0.91992504  0.71625396  0.89321378    -0.63400
O2131       O  0.93805209  0.91575870  0.89935733    -0.58200
O2132       O  0.92408460  0.77990630  0.88332253    -0.94900
O2133       O  0.92713140  0.84452532  0.88250447    -0.93300
O2134       O  0.03415819  0.86918591  0.93489280    -0.93700
O2135       O  0.03646781  0.79995212  0.91690342    -0.92400
C2136       C  0.92964008  0.81147205  0.86932055     1.16600
H2137       H  0.97587641  0.89752552  0.96363428     0.32600
H2138       H  0.98099602  0.74340405  0.96715538     0.43400
H2139       H  0.84948030  0.81325396  0.92421541     0.36900
H2140       H  0.88101914  0.81805201  0.54451039     0.33400
H2141       H  0.07524028  0.78724886  0.97081696     0.25200
H2142       H  0.88080196  0.70803115  0.53782591     0.31100
H2143       H  0.82610028  0.76341883  0.54029912     0.37000
H2144       H  0.01598671  0.87712550  0.91928225     0.31500
H2145       H  0.91897222  0.93639405  0.89802074     0.30400
H2146       H  0.83097280  0.88748041  0.92610614     0.32100
H2147       H  0.78638975  0.86256372  0.96394150     0.31000
H2148       H  0.01647312  0.79541829  0.90166120     0.35000
H2149       H  0.94605137  0.70606037  0.89537214     0.27800
H2150       H  0.94541481  0.92115455  0.57087034     0.32000
H2151       H  0.82120956  0.87989990  0.51849307     0.34800
H2152       H  0.95944897  0.92721693  0.91069138     0.27500
H2153       H  0.90280077  0.69444457  0.89724910     0.40300
H2154       H  0.98853315  0.72534734  0.55895258     0.30400
H2155       H  0.04661231  0.76325626  0.49663362     0.38000
H2156       H  0.76715393  0.82269109  0.96799843     0.29900
H2157       H  0.91342891  0.70505505  0.56157217     0.29900
H2158       H  0.90120760  0.91392356  0.56837360     0.30200
Zr2159     Zr  0.94400581  0.86539357  0.76914119     2.17500
O2160       O  0.95402481  0.91566341  0.80713083    -0.52200
O2161       O  0.01027490  0.89146744  0.76423843    -0.75400
O2162       O  0.94049815  0.84205541  0.82190821    -0.82200
O2163       O  0.90408891  0.92874205  0.71255281    -0.83900
O2164       O  0.93830551  0.77735720  0.82180237    -0.79500
O2165       O  0.90692573  0.92393445  0.76371789    -0.91200
O2166       O  0.04037287  0.85717106  0.72691874    -0.77100
O2167       O  0.98048936  0.80893113  0.75979456    -0.86600
O2168       O  0.96392973  0.86721614  0.71681795    -0.86300
O2169       O  0.90014416  0.81283261  0.77681414    -0.73100
O2170       O  0.88726313  0.86530308  0.73860205    -0.85200
Zr2171     Zr  0.90302987  0.75819553  0.68476571     2.26400
Zr2172     Zr  0.93746846  0.75670303  0.76775246     2.06300
Zr2173     Zr  0.90783636  0.86695380  0.68689589     2.10000
Zr2174     Zr  0.99946085  0.81032006  0.70742348     1.78800
O2175       O  0.84584919  0.88621881  0.66830575    -0.94000
O2176       O  0.05255142  0.77565240  0.72889620    -0.41800
O2177       O  0.94455179  0.81095254  0.67697366    -0.78500
O2178       O  0.95953643  0.75717863  0.71572804    -0.97100
O2179       O  0.88219883  0.75647320  0.73673648    -0.90400
O2180       O  0.86506291  0.81405202  0.69353504    -0.93300
C2181       C  0.03926153  0.88403157  0.74651765     1.00500
C2182       C  0.89827112  0.94188213  0.73970622     1.13400
C2183       C  0.93770904  0.81004724  0.83572180     1.04200
O2184       O  0.00001301  0.73545258  0.78225516    -0.95400
O2185       O  0.93968160  0.69293079  0.74384766    -0.91200
O2186       O  0.93028961  0.69522557  0.69277373    -0.84300
C2187       C  0.93902829  0.67754753  0.71695266     1.10800
O2188       O  0.81722219  0.85833517  0.78146983    -0.97400
Zr2189     Zr  0.84533160  0.81222897  0.74567883     1.88900
O2190       O  0.83701808  0.73331650  0.68813638    -0.74100
O2191       O  0.90123541  0.71355135  0.80014949    -0.53300
O2192       O  0.81605299  0.78588914  0.79128912    -0.98000
O2193       O  0.79160391  0.84200412  0.72115366    -0.55200
O2194       O  0.80893627  0.75631661  0.73154102    -0.74600
C2195       C  0.81024394  0.73340385  0.70864859     0.97800
O2196       O  0.89408596  0.71256394  0.64300021    -0.63400
O2197       O  0.93628241  0.91529105  0.65453203    -0.58200
O2198       O  0.91611654  0.78470714  0.63338132    -0.94900
O2199       O  0.91905543  0.84927116  0.63395351    -0.93300
O2200       O  0.02421901  0.84343313  0.66310537    -0.93700
O2201       O  0.03348811  0.77120925  0.66960535    -0.92400
C2202       C  0.92095319  0.81697371  0.62002993     1.16600
H2203       H  0.97830611  0.88987523  0.71210649     0.32600
H2204       H  0.97707542  0.73672552  0.71109143     0.43400
H2205       H  0.84372291  0.81452136  0.67999167     0.36900
H2206       H  0.88814581  0.81342045  0.79666850     0.33400
H2207       H  0.05708282  0.78808412  0.74885127     0.25200
H2208       H  0.88464939  0.73007846  0.81317625     0.31100
H2209       H  0.82476969  0.75912467  0.79147209     0.37000
H2210       H  0.00377220  0.84162104  0.64793777     0.31500
H2211       H  0.91703617  0.93583808  0.65373565     0.30400
H2212       H  0.84728309  0.91428018  0.66729946     0.32100
H2213       H  0.79683600  0.86963079  0.72272127     0.31000
H2214       H  0.01312513  0.75805392  0.65819278     0.35000
H2215       H  0.87549294  0.72432087  0.62935798     0.27800
H2216       H  0.97510258  0.90675817  0.81986542     0.32000
H2217       H  0.83852375  0.87558187  0.78682023     0.34800
H2218       H  0.95745120  0.92635837  0.66636577     0.27500
H2219       H  0.91852245  0.71196079  0.63130814     0.40300
H2220       H  0.01051466  0.75660812  0.79465682     0.30400
H2221       H  0.04211046  0.75032291  0.73387156     0.38000
H2222       H  0.76958957  0.83789967  0.73515018     0.29900
H2223       H  0.88321973  0.70053592  0.78636648     0.29900
H2224       H  0.93112156  0.91545695  0.82066445     0.30200
Zr2225     Zr  0.75329841  0.61772785  0.98678371     2.17500
O2226       O  0.78718257  0.65396426  0.02559915    -0.52200
O2227       O  0.81578615  0.58615938  0.98209865    -0.75400
O2228       O  0.73719260  0.59367084  0.54202019    -0.82200
O2229       O  0.77728611  0.68964418  0.92367081    -0.83900
O2230       O  0.68708852  0.55267958  0.54114330    -0.79500
O2231       O  0.78216570  0.67958013  0.97445168    -0.91200
O2232       O  0.81886666  0.54986430  0.93881939    -0.77100
O2233       O  0.74059065  0.55256021  0.97593998    -0.86600
O2234       O  0.76800746  0.60667083  0.93376871    -0.86300
O2235       O  0.68607366  0.61249897  0.99688472    -0.73100
O2236       O  0.71375535  0.65880115  0.95681410    -0.85200
Zr2237     Zr  0.64693864  0.57008687  0.90462236     2.26400
Zr2238     Zr  0.67359376  0.54672688  0.98660119     2.06300
Zr2239     Zr  0.72830065  0.64591399  0.90413193     2.10000
Zr2240     Zr  0.75439079  0.54189282  0.92281968     1.78800
O2241       O  0.70128476  0.70753264  0.89228875    -0.94000
O2242       O  0.77340357  0.47929702  0.93996090    -0.41800
O2243       O  0.71411430  0.58018257  0.89295310    -0.78500
O2244       O  0.68868342  0.53199563  0.93433453    -0.97100
O2245       O  0.63181159  0.58450806  0.95675017    -0.90400
O2246       O  0.66171302  0.63627751  0.91347190    -0.93300
C2247       C  0.83382353  0.56566389  0.96201053     1.00500
C2248       C  0.79040907  0.69799709  0.95010928     1.13400
C2249       C  0.71259675  0.57139933  0.55539332     1.04200
O2250       O  0.70432522  0.48710209  0.99903485    -0.95400
O2251       O  0.63212226  0.49692457  0.97092626    -0.91200
O2252       O  0.61799369  0.50756658  0.92151171    -0.84300
C2253       C  0.61676756  0.48718203  0.94599739     1.10800
O2254       O  0.64796883  0.69795181  0.00586510    -0.97400
Zr2255     Zr  0.64666638  0.64975718  0.96532559     1.88900
O2256       O  0.58527590  0.60308987  0.90247648    -0.74100
O2257       O  0.61679945  0.54421448  0.01946873    -0.53300
O2258       O  0.59892732  0.63031992  0.00290747    -0.98000
O2259       O  0.63817358  0.71668818  0.95382585    -0.55200
O2260       O  0.59092522  0.65444566  0.93411969    -0.74600
C2261       C  0.57323892  0.63481264  0.91400353     0.97800
O2262       O  0.62227526  0.52416257  0.86769664    -0.63400
O2263       O  0.78307556  0.65682135  0.87026555    -0.58200
O2264       O  0.65765227  0.59253627  0.85147086    -0.94900
O2265       O  0.70845127  0.63304893  0.85166877    -0.93300
O2266       O  0.78888916  0.55090934  0.87495525    -0.93700
O2267       O  0.74263878  0.48867160  0.88807184    -0.92400
C2268       C  0.68213866  0.61432537  0.83777555     1.16600
H2269       H  0.79406915  0.61341104  0.92881889     0.32600
H2270       H  0.68529615  0.50524214  0.93016083     0.43400
H2271       H  0.64782366  0.65225334  0.89992145     0.36900
H2272       H  0.67943508  0.61992094  0.01755050     0.33400
H2273       H  0.78896529  0.48422201  0.95813722     0.25200
H2274       H  0.59137874  0.54606410  0.50944258     0.31100
H2275       H  0.60626376  0.64254300  0.02234515     0.37000
H2276       H  0.81247902  0.56473985  0.88040661     0.31500
H2277       H  0.79443229  0.63140624  0.86639578     0.30400
H2278       H  0.70440786  0.70942044  0.86998857     0.32100
H2279       H  0.61127038  0.72219009  0.95954707     0.31000
H2280       H  0.71919685  0.49586366  0.87734335     0.35000
H2281       H  0.59897315  0.53608724  0.85978262     0.27800
H2282       H  0.79673080  0.64115711  0.53879346     0.32000
H2283       H  0.67475871  0.70697919  0.00612826     0.34800
H2284       H  0.77269558  0.66434468  0.85052917     0.27500
H2285       H  0.64066384  0.52351611  0.85035727     0.40300
H2286       H  0.68960903  0.47754741  0.01671197     0.30400
H2287       H  0.74958406  0.46777326  0.94802397     0.38000
H2288       H  0.63888725  0.71768853  0.93138973     0.29900
H2289       H  0.61545196  0.53108981  0.53628427     0.29900
H2290       H  0.75846159  0.66438275  0.54187159     0.30200
Zr2291     Zr  0.64599008  0.56815799  0.65413014     2.17500
O2292       O  0.60634127  0.55127151  0.61080907    -0.52200
O2293       O  0.61714493  0.50326215  0.66380487    -0.75400
O2294       O  0.67745656  0.56399332  0.60232136    -0.82200
O2295       O  0.58340971  0.63614890  0.69872194    -0.83900
O2296       O  0.74176835  0.57216737  0.60459551    -0.79500
O2297       O  0.58722101  0.60481937  0.65302974    -0.91200
O2298       O  0.64077735  0.48228589  0.70792415    -0.77100
O2299       O  0.69898294  0.53183290  0.66965814    -0.86600
O2300       O  0.63493939  0.56043523  0.70777420    -0.86300
O2301       O  0.69989751  0.61030330  0.64584942    -0.73100
O2302       O  0.64606894  0.62959628  0.68057610    -0.85200
Zr2303     Zr  0.74447415  0.62115777  0.73878014     2.26400
Zr2304     Zr  0.75328307  0.57221909  0.65966724     2.06300
Zr2305     Zr  0.63531374  0.62120526  0.73368105     2.10000
Zr2306     Zr  0.68841934  0.52460583  0.72334145     1.78800
O2307       O  0.61801698  0.68469997  0.75229933    -0.94000
O2308       O  0.72533944  0.46761178  0.71036689    -0.41800
O2309       O  0.68835426  0.58451893  0.74851949    -0.78500
O2310       O  0.74378026  0.55990796  0.71298375    -0.97100
O2311       O  0.75332858  0.63242419  0.68591084    -0.90400
O2312       O  0.69132813  0.65957586  0.72558909    -0.93300
C2313       C  0.61886421  0.47888494  0.68554399     1.00500
C2314       C  0.57096581  0.62793720  0.67194590     1.13400
C2315       C  0.71088997  0.56830611  0.58943742     1.04200
O2316       O  0.77494103  0.50996592  0.64113357    -0.95400
O2317       O  0.81114672  0.56144300  0.68762249    -0.91200
O2318       O  0.80562041  0.58777494  0.73527064    -0.84300
C2319       C  0.82329304  0.56801328  0.71459957     1.10800
O2320       O  0.64962602  0.69837205  0.64329645    -0.97400
Zr2321     Zr  0.70025331  0.66999640  0.67256336     1.88900
O2322       O  0.77298995  0.68419348  0.73027414    -0.74100
O2323       O  0.80787216  0.60497018  0.63713879    -0.53300
O2324       O  0.72394875  0.68975170  0.62290564    -0.98000
O2325       O  0.68094354  0.73193890  0.69349032    -0.55200
O2326       O  0.76121147  0.70095989  0.68200801    -0.74600
C2327       C  0.77962208  0.70450566  0.70674307     0.97800
O2328       O  0.78442238  0.63688276  0.78205449    -0.63400
O2329       O  0.57824549  0.59728657  0.75946966    -0.58200
O2330       O  0.71548441  0.62071175  0.79048778    -0.94900
O2331       O  0.65080555  0.61546575  0.78865011    -0.93300
O2332       O  0.64878147  0.50877311  0.76737691    -0.93700
O2333       O  0.72318509  0.50108644  0.76645805    -0.92400
C2334       C  0.68236025  0.61720431  0.80359426     1.16600
H2335       H  0.61083779  0.54815701  0.71209754     0.32600
H2336       H  0.76110432  0.54133744  0.72073226     0.43400
H2337       H  0.69076708  0.68285198  0.73762882     0.36900
H2338       H  0.70081303  0.61995977  0.62557850     0.33400
H2339       H  0.70673094  0.44642971  0.71054928     0.25200
H2340       H  0.81306473  0.59160405  0.61753197     0.31100
H2341       H  0.72858360  0.71741451  0.62527668     0.37000
H2342       H  0.64050487  0.53356709  0.77623171     0.31500
H2343       H  0.56767383  0.61957409  0.77080183     0.30400
H2344       H  0.61812317  0.70056022  0.73396181     0.32100
H2345       H  0.68551925  0.74984932  0.67672576     0.31000
H2346       H  0.73514521  0.52402458  0.77554780     0.35000
H2347       H  0.79037222  0.61230689  0.79151580     0.27800
H2348       H  0.58006916  0.54798412  0.61903450     0.32000
H2349       H  0.64328187  0.67878843  0.62775681     0.34800
H2350       H  0.55970828  0.59209264  0.74322226     0.27500
H2351       H  0.80910392  0.64557484  0.77330292     0.40300
H2352       H  0.77837756  0.51228241  0.61889735     0.30400
H2353       H  0.73274815  0.47017490  0.68871753     0.38000
H2354       H  0.70061313  0.73883679  0.70846075     0.29900
H2355       H  0.79789068  0.63016337  0.63152885     0.29900
H2356       H  0.61425143  0.52514734  0.60472166     0.30200
Zr2357     Zr  0.05661621  0.15838493  0.53572982     2.17500
O2358       O  0.04761535  0.11673215  0.57905133    -0.52200
O2359       O  0.98997482  0.13260390  0.53154622    -0.75400
O2360       O  0.06530955  0.18152316  0.58835183    -0.82200
O2361       O  0.10026573  0.09601401  0.97749206    -0.83900
O2362       O  0.06705872  0.24616022  0.58938185    -0.79500
O2363       O  0.08905155  0.09774481  0.52722194    -0.91200
O2364       O  0.96220908  0.18781609  0.52417959    -0.77100
O2365       O  0.02277566  0.21719286  0.53176114    -0.86600
O2366       O  0.03129857  0.15504562  0.98584452    -0.86300
O2367       O  0.10434549  0.20847672  0.53998156    -0.73100
O2368       O  0.10948019  0.15709010  0.49932572    -0.85200
Zr2369     Zr  0.09046384  0.26320795  0.95086023     2.26400
Zr2370     Zr  0.07025285  0.26702197  0.53629511     2.06300
Zr2371     Zr  0.08443353  0.15431674  0.95076823     2.10000
Zr2372     Zr  0.99579930  0.21221606  0.98069787     1.78800
O2373       O  0.14253785  0.13433942  0.92377684    -0.94000
O2374       O  0.93931381  0.25248980  0.48643571    -0.41800
O2375       O  0.04754166  0.21044155  0.94512337    -0.78500
O2376       O  0.03703385  0.26443547  0.98706156    -0.97100
O2377       O  0.12046333  0.26532761  0.49938919    -0.90400
O2378       O  0.12835783  0.20689636  0.95435138    -0.93300
C2379       C  0.95989211  0.15203821  0.52596149     1.00500
C2380       C  0.10129583  0.08170449  0.50261817     1.13400
C2381       C  0.06836064  0.21374715  0.60255885     1.04200
O2382       O  0.04372931  0.31494158  0.57137517    -0.95400
O2383       O  0.05937421  0.32961176  0.51300863    -0.91200
O2384       O  0.05799698  0.32326902  0.95791984    -0.84300
C2385       C  0.05507793  0.34319385  0.48614987     1.10800
O2386       O  0.19079448  0.16100579  0.53091912    -0.97400
Zr2387     Zr  0.15510627  0.20761325  0.50262317     1.88900
O2388       O  0.15404694  0.29412751  0.95524587    -0.74100
O2389       O  0.13129436  0.29116787  0.55402420    -0.53300
O2390       O  0.19260196  0.23098503  0.54511456    -0.98000
O2391       O  0.20156232  0.16785857  0.97873008    -0.55200
O2392       O  0.19444152  0.25870492  0.98279183    -0.74600
C2393       C  0.18680599  0.28816360  0.96729354     0.97800
O2394       O  0.09764874  0.30988791  0.91071566    -0.63400
O2395       O  0.04996287  0.10385403  0.92418784    -0.58200
O2396       O  0.07948028  0.23855412  0.89939326    -0.94900
O2397       O  0.07044110  0.17458575  0.89896651    -0.93300
O2398       O  0.96947400  0.16435056  0.94648554    -0.93700
O2399       O  0.97487091  0.25997108  0.94501574    -0.92400
C2400       C  0.07133856  0.20703936  0.88576618     1.16600
H2401       H  0.01627066  0.13238464  0.98236029     0.32600
H2402       H  0.01757353  0.28353018  0.98516281     0.43400
H2403       H  0.14794077  0.20608865  0.93865117     0.36900
H2404       H  0.11763949  0.20734644  0.55890052     0.33400
H2405       H  0.92366160  0.24207910  0.50325581     0.25200
H2406       H  0.13097814  0.31864070  0.54951410     0.31100
H2407       H  0.21894186  0.23374519  0.53686535     0.37000
H2408       H  0.98869152  0.16147584  0.92983649     0.31500
H2409       H  0.06908603  0.09217626  0.91004971     0.30400
H2410       H  0.13890710  0.10686510  0.91956231     0.32100
H2411       H  0.20741491  0.18010027  0.95914427     0.31000
H2412       H  0.96952608  0.24540534  0.92613047     0.35000
H2413       H  0.11799534  0.30006211  0.89676993     0.27800
H2414       H  0.07326742  0.10693293  0.58386352     0.32000
H2415       H  0.17262006  0.13984488  0.53422921     0.34800
H2416       H  0.04485297  0.08414455  0.93949178     0.27500
H2417       H  0.07393216  0.30896757  0.89882270     0.40300
H2418       H  0.06477251  0.33317921  0.57500389     0.30400
H2419       H  0.94824950  0.27750833  0.49415028     0.38000
H2420       H  0.18726586  0.14451832  0.97321599     0.29900
H2421       H  0.12920794  0.29024796  0.57644462     0.29900
H2422       H  0.03362412  0.09429850  0.57113183     0.30200
Zr2423     Zr  0.05324770  0.15821425  0.78399638     2.17500
O2424       O  0.03668401  0.10972848  0.82120026    -0.52200
O2425       O  0.98920828  0.12994298  0.77372900    -0.75400
O2426       O  0.05879570  0.17768464  0.83775075    -0.82200
O2427       O  0.10290986  0.10064278  0.72772628    -0.83900
O2428       O  0.06303741  0.24208847  0.84071369    -0.79500
O2429       O  0.08737978  0.09887944  0.77792594    -0.91200
O2430       O  0.95477009  0.18071061  0.76170926    -0.77100
O2431       O  0.01704700  0.21528956  0.78047865    -0.86600
O2432       O  0.03198966  0.15806324  0.73241210    -0.86300
O2433       O  0.09924366  0.20926467  0.79185886    -0.73100
O2434       O  0.10965763  0.16050023  0.75100957    -0.85200
Zr2435     Zr  0.09134327  0.26697210  0.70346327     2.26400
Zr2436     Zr  0.06197844  0.26605852  0.78869934     2.06300
Zr2437     Zr  0.08757637  0.15870524  0.70036331     2.10000
Zr2438     Zr  0.99571708  0.21528416  0.72908014     1.78800
O2439       O  0.14635999  0.13969875  0.67380074    -0.94000
O2440       O  0.94793830  0.26112752  0.74734001    -0.41800
O2441       O  0.04946878  0.21439512  0.69535061    -0.78500
O2442       O  0.03684039  0.26707542  0.73803000    -0.97100
O2443       O  0.11494237  0.26808799  0.75372195    -0.90400
O2444       O  0.13013593  0.21165465  0.70674128    -0.93300
C2445       C  0.95812669  0.14523313  0.76465390     1.00500
C2446       C  0.10271364  0.08453941  0.75387492     1.13400
C2447       C  0.06311415  0.20899325  0.85283336     1.04200
O2448       O  0.00775960  0.29549737  0.81530623    -0.95400
O2449       O  0.05486582  0.33083885  0.77079604    -0.91200
O2450       O  0.06821793  0.32918927  0.71986723    -0.84300
C2451       C  0.05698829  0.34618229  0.74451496     1.10800
O2452       O  0.18831894  0.15974488  0.77759505    -0.97400
Zr2453     Zr  0.15301156  0.21310673  0.75734353     1.88900
O2454       O  0.15601869  0.29402034  0.70388038    -0.74100
O2455       O  0.10933979  0.30301727  0.81653075    -0.53300
O2456       O  0.18144698  0.23506528  0.80467258    -0.98000
O2457       O  0.20750868  0.19636967  0.72441674    -0.55200
O2458       O  0.18428590  0.27393616  0.74656281    -0.74600
C2459       C  0.18207183  0.29644985  0.72401465     0.97800
O2460       O  0.09154435  0.30983797  0.66058512    -0.63400
O2461       O  0.05691775  0.10686405  0.67251152    -0.58200
O2462       O  0.07987897  0.24506917  0.65053383    -0.94900
O2463       O  0.07730535  0.18041586  0.64861045    -0.93300
O2464       O  0.96302405  0.17588453  0.69169876    -0.93700
O2465       O  0.96413685  0.25142080  0.69028632    -0.92400
C2466       C  0.07551491  0.21312334  0.63596935     1.16600
H2467       H  0.01770806  0.13582755  0.72642359     0.32600
H2468       H  0.01943366  0.28789400  0.73543083     0.43400
H2469       H  0.15026063  0.21185163  0.69154140     0.36900
H2470       H  0.11175741  0.20709043  0.81101346     0.33400
H2471       H  0.92398537  0.24643510  0.74978131     0.25200
H2472       H  0.12248734  0.28445484  0.82932997     0.31100
H2473       H  0.20515926  0.22015560  0.80679992     0.37000
H2474       H  0.98198085  0.15674990  0.68449205     0.31500
H2475       H  0.07750543  0.08799090  0.66869272     0.30400
H2476       H  0.15396374  0.11564567  0.68329436     0.32100
H2477       H  0.20293863  0.16973690  0.71775817     0.31000
H2478       H  0.97489406  0.27737042  0.69223956     0.35000
H2479       H  0.06602403  0.32184380  0.66108897     0.27800
H2480       H  0.01571900  0.12049773  0.83408705     0.32000
H2481       H  0.16888940  0.14451338  0.78856645     0.34800
H2482       H  0.03958556  0.09454862  0.68736145     0.27500
H2483       H  0.10928181  0.33066763  0.66608768     0.40300
H2484       H  0.99168809  0.27392736  0.82197846     0.30400
H2485       H  0.95551086  0.26769149  0.76832081     0.38000
H2486       H  0.22974026  0.19513407  0.73790540     0.29900
H2487       H  0.12891065  0.31029019  0.80119937     0.29900
H2488       H  0.05868577  0.10730325  0.83483295     0.30200
Zr2489     Zr  0.34828341  0.45369670  0.90613922     2.17500
O2490       O  0.39403452  0.46748824  0.86523200    -0.52200
O2491       O  0.37562989  0.51946041  0.91066352    -0.75400
O2492       O  0.32111594  0.44893832  0.85426994    -0.82200
O2493       O  0.41417632  0.40412432  0.95829499    -0.83900
O2494       O  0.25649130  0.44252607  0.85598801    -0.79500
O2495       O  0.40925934  0.42051410  0.90871774    -0.91200
O2496       O  0.34382722  0.54941285  0.94941187    -0.77100
O2497       O  0.29126756  0.48885345  0.91690363    -0.86600
O2498       O  0.35326209  0.47262645  0.95856300    -0.86300
O2499       O  0.29728246  0.40732093  0.90004353    -0.73100
O2500       O  0.35080819  0.39748972  0.93716439    -0.85200
Zr2501     Zr  0.24685277  0.40852560  0.99173029     2.26400
Zr2502     Zr  0.24015890  0.44351272  0.91059935     2.06300
Zr2503     Zr  0.35551949  0.41694288  0.98911683     2.10000
Zr2504     Zr  0.29634452  0.50774146  0.96907578     1.78800
O2505       O  0.37680169  0.35755486  0.01064806    -0.94000
O2506       O  0.26005778  0.56123671  0.95013346    -0.41800
O2507       O  0.29875311  0.45198672  0.99856671    -0.78500
O2508       O  0.24359683  0.46626532  0.96231340    -0.97100
O2509       O  0.24363738  0.38753977  0.94030967    -0.90400
O2510       O  0.30376787  0.37248519  0.98292986    -0.93300
C2511       C  0.36998821  0.54816389  0.92895518     1.00500
C2512       C  0.42727954  0.40572206  0.93065041     1.13400
C2513       C  0.28858771  0.44405971  0.84124198     1.04200
O2514       O  0.21551839  0.50081585  0.88773527    -0.95400
O2515       O  0.17888776  0.44813512  0.93895386    -0.91200
O2516       O  0.18348437  0.43401168  0.98915644    -0.84300
C2517       C  0.16517947  0.44595831  0.96642519     1.10800
O2518       O  0.35063671  0.32422877  0.89908937    -0.97400
Zr2519     Zr  0.30015108  0.35210011  0.93111729     1.88900
O2520       O  0.21261539  0.34835346  0.98157111    -0.74100
O2521       O  0.19339362  0.40283746  0.88581314    -0.53300
O2522       O  0.27565017  0.32256731  0.88499135    -0.98000
O2523       O  0.33174160  0.29805984  0.95371806    -0.55200
O2524       O  0.24547173  0.31261663  0.94667196    -0.74600
C2525       C  0.21683507  0.31815281  0.96489016     0.97800
O2526       O  0.21453473  0.38640140  0.54017567    -0.63400
O2527       O  0.40672396  0.44953781  0.51486156    -0.58200
O2528       O  0.26885916  0.42647348  0.54432587    -0.94900
O2529       O  0.33378742  0.42967617  0.54328097    -0.93300
O2530       O  0.33184809  0.53574396  0.01090910    -0.93700
O2531       O  0.25493713  0.53509854  0.00883069    -0.92400
C2532       C  0.30098932  0.43274179  0.55737926     1.16600
H2533       H  0.37609089  0.48714542  0.96242800     0.32600
H2534       H  0.22329277  0.48347221  0.96826470     0.43400
H2535       H  0.30490325  0.35150878  0.99671942     0.36900
H2536       H  0.29753147  0.39544027  0.88020159     0.33400
H2537       H  0.27580122  0.57164687  0.93333913     0.25200
H2538       H  0.18309031  0.41838727  0.86935724     0.31100
H2539       H  0.24756026  0.32513609  0.88685127     0.37000
H2540       H  0.33932706  0.51392811  0.02334994     0.31500
H2541       H  0.42402083  0.42940137  0.52187526     0.30400
H2542       H  0.37665250  0.33774313  0.49690051     0.32100
H2543       H  0.31253862  0.28697226  0.96775526     0.31000
H2544       H  0.25747366  0.51787799  0.02620995     0.35000
H2545       H  0.18809673  0.37989720  0.53442437     0.27800
H2546       H  0.38259760  0.48820932  0.85349487     0.32000
H2547       H  0.37283971  0.34140718  0.90139759     0.34800
H2548       H  0.40843947  0.43789231  0.03518403     0.27500
H2549       H  0.23301900  0.35528524  0.03910618     0.40300
H2550       H  0.18758039  0.49987978  0.89144641     0.30400
H2551       H  0.23783877  0.54954418  0.94000539     0.38000
H2552       H  0.35136001  0.30924708  0.96705311     0.29900
H2553       H  0.20874410  0.38287928  0.87519079     0.29900
H2554       H  0.39400100  0.44500662  0.85136285     0.30200
Zr2555     Zr  0.34876593  0.45630144  0.65894770     2.17500
O2556       O  0.39945328  0.47281136  0.62262940    -0.52200
O2557       O  0.37556542  0.52224061  0.66435707    -0.75400
O2558       O  0.33064805  0.44696599  0.60511464    -0.82200
O2559       O  0.40660429  0.40756119  0.71537957    -0.83900
O2560       O  0.26578194  0.44665950  0.60334013    -0.79500
O2561       O  0.40804938  0.42107249  0.66509271    -0.91200
O2562       O  0.34297266  0.55320851  0.70227703    -0.77100
O2563       O  0.29228540  0.49391549  0.66515574    -0.86600
O2564       O  0.34869021  0.47794433  0.71080475    -0.86300
O2565       O  0.29599809  0.41227187  0.65117307    -0.73100
O2566       O  0.34564539  0.40079234  0.69099558    -0.85200
Zr2567     Zr  0.23616970  0.42033107  0.74031632     2.26400
Zr2568     Zr  0.23997669  0.45108198  0.65601247     2.06300
Zr2569     Zr  0.34622380  0.42366211  0.74217837     2.10000
Zr2570     Zr  0.29151525  0.51431007  0.71748401     1.78800
O2571       O  0.37294442  0.36922618  0.76781205    -0.94000
O2572       O  0.25921125  0.56615669  0.69246082    -0.41800
O2573       O  0.28962112  0.46074976  0.74930543    -0.78500
O2574       O  0.23838638  0.47506666  0.70751862    -0.97100
O2575       O  0.23613257  0.39733018  0.68887097    -0.90400
O2576       O  0.29238366  0.38185801  0.73536977    -0.93300
C2577       C  0.36982248  0.55107351  0.68254172     1.00500
C2578       C  0.42279121  0.40679770  0.68868851     1.13400
C2579       C  0.29920087  0.44370950  0.59048176     1.04200
O2580       O  0.21672157  0.51107394  0.63670031    -0.95400
O2581       O  0.17397040  0.45535226  0.67608947    -0.91200
O2582       O  0.17528396  0.44849563  0.72749246    -0.84300
C2583       C  0.15832985  0.45662029  0.70285682     1.10800
O2584       O  0.33998854  0.32408563  0.65441656    -0.97400
Zr2585     Zr  0.29180392  0.35911638  0.68411871     1.88900
O2586       O  0.21126654  0.35456934  0.74037760    -0.74100
O2587       O  0.20044216  0.41487806  0.62087205    -0.53300
O2588       O  0.26867219  0.32816924  0.63806382    -0.98000
O2589       O  0.31330212  0.30581284  0.71401138    -0.55200
O2590       O  0.23378279  0.32489617  0.69767330    -0.74600
C2591       C  0.21102454  0.32701432  0.72071252     0.97800
O2592       O  0.18357767  0.41540737  0.77720725    -0.63400
O2593       O  0.39106073  0.46504299  0.76863428    -0.58200
O2594       O  0.25711131  0.43414300  0.79328299    -0.94900
O2595       O  0.32204201  0.43288977  0.79440807    -0.93300
O2596       O  0.31396568  0.53710034  0.76657761    -0.93700
O2597       O  0.24911124  0.55080851  0.75144849    -0.92400
C2598       C  0.28906244  0.43679967  0.80755472     1.16600
H2599       H  0.37167319  0.49162480  0.71591777     0.32600
H2600       H  0.21811487  0.49332631  0.71054384     0.43400
H2601       H  0.29205064  0.36163466  0.74991112     0.36900
H2602       H  0.29783854  0.39873086  0.63207474     0.33400
H2603       H  0.26918779  0.58965932  0.70217130     0.25200
H2604       H  0.18086239  0.40222743  0.63365840     0.31100
H2605       H  0.24106423  0.33416575  0.63775750     0.37000
H2606       H  0.33900510  0.54913717  0.76233975     0.31500
H2607       H  0.37545762  0.48684542  0.77613308     0.30400
H2608       H  0.37077967  0.37559207  0.78975224     0.32100
H2609       H  0.34153082  0.30730731  0.71365250     0.31000
H2610       H  0.22813114  0.53310737  0.75673975     0.35000
H2611       H  0.19190687  0.39665243  0.79219650     0.27800
H2612       H  0.38829515  0.49180287  0.60904645     0.32000
H2613       H  0.36471746  0.33219117  0.66293668     0.34800
H2614       H  0.39762630  0.45119767  0.78718595     0.27500
H2615       H  0.18280719  0.44003261  0.78846452     0.40300
H2616       H  0.23467614  0.51741967  0.61992203     0.30400
H2617       H  0.27025590  0.56634772  0.67161812     0.38000
H2618       H  0.30726840  0.28292261  0.70158002     0.29900
H2619       H  0.18621214  0.43432680  0.60970753     0.29900
H2620       H  0.40383907  0.44994168  0.60958994     0.30200
Zr2621     Zr  0.03930894  0.46856939  0.00935078     2.17500
O2622       O  0.07365009  0.48371304  0.56146449    -0.52200
O2623       O  0.04561706  0.40326979  0.50694992    -0.75400
O2624       O  0.99910055  0.42278569  0.53768467    -0.82200
O2625       O  0.11949385  0.48787838  0.95236014    -0.83900
O2626       O  0.93796062  0.43700328  0.52655676    -0.79500
O2627       O  0.10685549  0.45491367  0.99523346    -0.91200
O2628       O  0.02164640  0.39235582  0.95333957    -0.77100
O2629       O  0.99380327  0.49159420  0.97606229    -0.86600
O2630       O  0.04954875  0.46460926  0.95581942    -0.86300
O2631       O  0.99367654  0.51224010  0.53494899    -0.73100
O2632       O  0.05991727  0.53168953  0.00016629    -0.85200
Zr2633     Zr  0.96643988  0.56160410  0.93727843     2.26400
Zr2634     Zr  0.93562101  0.49987209  0.50821956     2.06300
Zr2635     Zr  0.06744208  0.52918758  0.94563386     2.10000
Zr2636     Zr  0.99067669  0.45069938  0.93360481     1.78800
O2637       O  0.12586791  0.56235319  0.95947769    -0.94000
O2638       O  0.94291316  0.40650042  0.95296538    -0.41800
O2639       O  0.01048813  0.51344138  0.91866252    -0.78500
O2640       O  0.94289680  0.49778976  0.94683999    -0.97100
O2641       O  0.95152964  0.56310113  0.99066774    -0.90400
O2642       O  0.02290308  0.57516971  0.96460570    -0.93300
C2643       C  0.03558963  0.38128265  0.97874746     1.00500
C2644       C  0.12816923  0.46362406  0.97209974     1.13400
C2645       C  0.96302037  0.41556751  0.53768760     1.04200
O2646       O  0.88451822  0.45490186  0.49748016    -0.95400
O2647       O  0.88401919  0.54452111  0.99112743    -0.91200
O2648       O  0.89698776  0.56282171  0.94290533    -0.84300
C2649       C  0.87420394  0.55811913  0.96579279     1.10800
O2650       O  0.05050926  0.58180427  0.56485160    -0.97400
Zr2651     Zr  0.00902711  0.57462238  0.01709797     1.88900
O2652       O  0.95167076  0.62536952  0.95289515    -0.74100
O2653       O  0.91545261  0.51692273  0.55994644    -0.53300
O2654       O  0.97006221  0.58880586  0.56370174    -0.98000
O2655       O  0.04777366  0.63150985  0.02515495    -0.55200
O2656       O  0.97407990  0.63123446  0.00095206    -0.74600
C2657       C  0.95693885  0.64406368  0.97758112     0.97800
O2658       O  0.93944472  0.56545443  0.88688389    -0.63400
O2659       O  0.09041651  0.51567476  0.89397121    -0.58200
O2660       O  0.01056091  0.60482180  0.90951113    -0.94900
O2661       O  0.07171502  0.58579918  0.91708105    -0.93300
O2662       O  0.02453003  0.44041012  0.88538397    -0.93700
O2663       O  0.95289192  0.43982782  0.88833238    -0.92400
C2664       C  0.04725521  0.60899900  0.90703889     1.16600
H2665       H  0.06700592  0.44545580  0.94826912     0.32600
H2666       H  0.91915955  0.49268756  0.93671656     0.43400
H2667       H  0.03182479  0.60084857  0.96185738     0.36900
H2668       H  0.99104179  0.51005149  0.55671336     0.33400
H2669       H  0.91881319  0.41457742  0.94365634     0.25200
H2670       H  0.92451461  0.49575753  0.57245230     0.31100
H2671       H  0.94620763  0.59871998  0.55510999     0.37000
H2672       H  0.02769077  0.41248812  0.88351944     0.31500
H2673       H  0.09098503  0.48757223  0.89228025     0.30400
H2674       H  0.14346381  0.55858782  0.94181177     0.32100
H2675       H  0.03031732  0.65070622  0.03454245     0.31000
H2676       H  0.92831255  0.45296796  0.89246144     0.35000
H2677       H  0.94465928  0.59173463  0.88028823     0.27800
H2678       H  0.09557107  0.50000690  0.55567636     0.32000
H2679       H  0.07559797  0.57083105  0.55876822     0.34800
H2680       H  0.06945590  0.52328868  0.88060067     0.27500
H2681       H  0.95625960  0.54925649  0.87378304     0.40300
H2682       H  0.86085909  0.46768324  0.50487730     0.30400
H2683       H  0.94893613  0.38190598  0.94267645     0.38000
H2684       H  0.05360085  0.64115388  0.00461689     0.29900
H2685       H  0.88734343  0.51391826  0.56004505     0.29900
H2686       H  0.08534485  0.45924437  0.56700295     0.30200
Zr2687     Zr  0.94708629  0.55435594  0.75274385     2.17500
O2688       O  0.91254206  0.54720045  0.80078725    -0.52200
O2689       O  0.94467745  0.61906870  0.73916264    -0.75400
O2690       O  0.98496009  0.60402547  0.77508839    -0.82200
O2691       O  0.86663725  0.51889546  0.70656439    -0.83900
O2692       O  0.04607038  0.59860789  0.75807846    -0.79500
O2693       O  0.88031946  0.56458206  0.74186918    -0.91200
O2694       O  0.96298015  0.62217516  0.68963604    -0.77100
O2695       O  0.99434749  0.52952938  0.71973807    -0.86600
O2696       O  0.93535405  0.54556725  0.70012381    -0.86300
O2697       O  0.00099917  0.52383642  0.77456631    -0.73100
O2698       O  0.93045186  0.48937508  0.75236726    -0.85200
Zr2699     Zr  0.02633265  0.45573560  0.68932336     2.26400
Zr2700     Zr  0.05545200  0.53329922  0.74136229     2.06300
Zr2701     Zr  0.92164417  0.47835697  0.69859960     2.10000
Zr2702     Zr  0.99178747  0.56022249  0.67315881     1.78800
O2703       O  0.86893301  0.43851779  0.71578496    -0.94000
O2704       O  0.04362014  0.60582028  0.68016036    -0.41800
O2705       O  0.97659491  0.49347020  0.66747046    -0.78500
O2706       O  0.04466171  0.52226735  0.68871777    -0.97100
O2707       O  0.04210562  0.46800385  0.74123670    -0.90400
O2708       O  0.97180439  0.44276296  0.72040671    -0.93300
C2709       C  0.94950558  0.63703586  0.71465564     1.00500
C2710       C  0.85849138  0.54901574  0.72221586     1.13400
C2711       C  0.01920767  0.61619428  0.77259955     1.04200
O2712       O  0.09984080  0.57752417  0.71763529    -0.95400
O2713       O  0.11020360  0.49230215  0.72855301    -0.91200
O2714       O  0.09501736  0.45775858  0.68641844    -0.84300
C2715       C  0.11879697  0.46979927  0.70603029     1.10800
O2716       O  0.95599689  0.47083612  0.82113407    -0.97400
Zr2717     Zr  0.98588631  0.45718375  0.77165538     1.88900
O2718       O  0.04633009  0.39934367  0.71501012    -0.74100
O2719       O  0.08560307  0.52637591  0.79030974    -0.53300
O2720       O  0.02712918  0.44881036  0.81487753    -0.98000
O2721       O  0.93917442  0.40719159  0.78124505    -0.55200
O2722       O  0.02237383  0.39917803  0.76345770    -0.75800
C2723       C  0.04158478  0.38437336  0.74113633     0.97800
O2724       O  0.05118103  0.44032843  0.63849730    -0.63400
O2725       O  0.89202062  0.48153229  0.64908231    -0.58200
O2726       O  0.99036277  0.40309655  0.66765952    -0.94900
O2727       O  0.92740615  0.41535227  0.67540837    -0.93300
O2728       O  0.95311599  0.57104834  0.62883496    -0.93700
O2729       O  0.01761686  0.54929575  0.62206563    -0.92400
C2730       C  0.95497353  0.39351962  0.66673949     1.16600
H2731       H  0.91638188  0.56193538  0.69164296     0.32600
H2732       H  0.06721632  0.52659426  0.67633708     0.43400
H2733       H  0.96589473  0.41597869  0.72075670     0.36900
H2734       H  0.00556490  0.53265019  0.79506780     0.33400
H2735       H  0.05308598  0.61106306  0.65934354     0.25200
H2736       H  0.11330730  0.52876874  0.78588904     0.31100
H2737       H  0.05268314  0.45711175  0.80766784     0.37000
H2738       H  0.92885468  0.55749188  0.63298811     0.31500
H2739       H  0.91299925  0.47682253  0.63411287     0.30400
H2740       H  0.87052450  0.43887033  0.73818303     0.32100
H2741       H  0.91413820  0.42022750  0.78106776     0.31000
H2742       H  0.03065689  0.52437148  0.62285549     0.35000
H2743       H  0.02861408  0.43960883  0.62530007     0.27800
H2744       H  0.89300323  0.56753585  0.80111205     0.32000
H2745       H  0.96721296  0.49513462  0.82832299     0.34800
H2746       H  0.87572807  0.45857120  0.64768808     0.27500
H2747       H  0.05973584  0.41354646  0.63942183     0.40300
H2748       H  0.12114326  0.57977873  0.73200357     0.30400
H2749       H  0.03220753  0.63011014  0.68744113     0.38000
H2750       H  0.94256443  0.40032978  0.80271766     0.29900
H2751       H  0.07888417  0.54994955  0.80182643     0.29900
H2752       H  0.93095194  0.55547331  0.81634175     0.30200
C2753       C  0.02912283  0.65174129  0.78902248    -0.20700
C2754       C  0.00808931  0.66466317  0.81500855     0.35500
C2755       C  0.02422308  0.69165954  0.83424995    -0.26700
C2756       C  0.06274770  0.70275898  0.83033651     0.01900
C2757       C  0.07953160  0.69710670  0.80128155     0.26700
C2758       C  0.06289997  0.67108387  0.78093869    -0.25800
N2759       N  0.97167589  0.64944938  0.82392530    -0.83200
H2760       H  0.00814560  0.69912518  0.85470827     0.12600
C2761       C  0.08700853  0.70348820  0.85806126     0.01900
N2762       N  0.11398000  0.71648802  0.79291318    -0.81800
H2763       H  0.07780813  0.66414116  0.75978693     0.17400
C2764       C  0.06675109  0.71141439  0.88533614    -0.26600
C2765       C  0.05194067  0.68054621  0.90173756     0.35400
C2766       C  0.06369737  0.64320654  0.89320747    -0.20600
C2767       C  0.09644644  0.63937494  0.87442413    -0.25900
C2768       C  0.11075427  0.67114834  0.85938228     0.26800
H2769       H  0.05358042  0.73891751  0.88864911     0.12500
N2770       N  0.02488220  0.68774808  0.92589234    -0.83200
H2771       H  0.11089069  0.61225404  0.87166843     0.17400
N2772       N  0.14729958  0.66908794  0.84428775    -0.81800
H2773       H  0.03526495  0.67575163  0.94563542     0.33000
H2774       H  0.99923232  0.67440477  0.92044916     0.37500
H2775       H  0.14508921  0.65037671  0.82569518     0.33000
H2776       H  0.15524499  0.69586825  0.83649853     0.29700
H2777       H  0.13408874  0.69622805  0.78553810     0.33000
H2778       H  0.10804693  0.73336287  0.77429973     0.29700
H2779       H  0.97456151  0.62051521  0.82835493     0.37600
H2780       H  0.95239444  0.65343381  0.80646450     0.33000
C2781       C  0.94822250  0.38056853  0.55171573    -0.20700
C2782       C  0.91306341  0.38054969  0.56793028     0.35500
C2783       C  0.90192626  0.34826672  0.58384293    -0.26700
C2784       C  0.92646539  0.31656118  0.58539809     0.01900
C2785       C  0.95581904  0.31353625  0.56310609     0.26700
C2786       C  0.96767422  0.34616867  0.54750233    -0.25800
N2787       N  0.88957042  0.41388339  0.56988226    -0.83200
H2788       H  0.87633484  0.35036540  0.59792812     0.12600
C2789       C  0.92991386  0.29620769  0.61512953     0.01900
N2790       N  0.97439587  0.27783133  0.55746486    -0.81800
H2791       H  0.99215243  0.34487728  0.53228072     0.17400
C2792       C  0.90181726  0.30599965  0.63710034    -0.26600
C2793       C  0.90845992  0.33859198  0.65532411     0.35400
C2794       C  0.94593620  0.35471033  0.65518333    -0.20600
C2795       C  0.97587607  0.33169674  0.64349031    -0.25900
C2796       C  0.96704835  0.29882955  0.62674173     0.26800
H2797       H  0.87268101  0.29656121  0.63402100     0.12500
N2798       N  0.87686317  0.35495869  0.67196854    -0.83200
H2799       H  0.00542690  0.33901944  0.64708752     0.17400
N2800       N  0.99619519  0.27164666  0.61907511    -0.81800
H2801       H  0.87034569  0.38134147  0.66290232     0.33000
H2802       H  0.88450991  0.35840140  0.69467063     0.37500
H2803       H  0.98373305  0.24776388  0.60883001     0.33000
H2804       H  0.00711492  0.26205383  0.63944033     0.29700
H2805       H  0.99329611  0.28025694  0.53902140     0.33000
H2806       H  0.95350554  0.25831682  0.55091285     0.29700
H2807       H  0.88611418  0.42173132  0.59277189     0.37600
H2808       H  0.86271008  0.40679901  0.56148914     0.33000
C2809       C  0.53878316  0.88546312  0.87241053    -0.20700
C2810       C  0.52925151  0.87265805  0.84313418     0.35500
C2811       C  0.55861844  0.85839898  0.82400412    -0.26700
C2812       C  0.59688021  0.86304829  0.83331749     0.01900
C2813       C  0.60226266  0.85802569  0.86441269     0.26700
C2814       C  0.57351137  0.87222532  0.88417521    -0.25800
N2815       N  0.49147514  0.87664087  0.83186140    -0.83200
H2816       H  0.55220914  0.85276956  0.80046389     0.12600
C2817       C  0.61745370  0.89664324  0.81992661     0.01900
N2818       N  0.63977002  0.84991573  0.87513559    -0.81800
H2819       H  0.58086192  0.87796822  0.90733293     0.17400
C2820       C  0.62527531  0.92804963  0.83956615    -0.26600
C2821       C  0.60839330  0.96368069  0.83417927     0.35400
C2822       C  0.58353343  0.96612336  0.80973444    -0.20600
C2823       C  0.59082476  0.94081600  0.78529043    -0.25900
C2824       C  0.60924439  0.90621613  0.78999971     0.26800
H2825       H  0.63959297  0.92384204  0.86077454     0.12500
N2826       N  0.61766774  0.99668796  0.85201670    -0.83200
H2827       H  0.58023986  0.94699688  0.76320843     0.17400
N2828       N  0.61676464  0.88037948  0.76514393    -0.81800
H2829       H  0.62924014  0.01666198  0.83714019     0.33000
H2830       H  0.63981454  0.99041142  0.86666824     0.37500
H2831       H  0.64622532  0.87574182  0.76395468     0.33000
H2832       H  0.60381941  0.85425258  0.76942957     0.29700
H2833       H  0.64016197  0.85200091  0.89882559     0.33000
H2834       H  0.64571440  0.82154787  0.86938182     0.29700
H2835       H  0.47285957  0.86198549  0.84631439     0.37600
H2836       H  0.48410804  0.90539024  0.83295775     0.33000
C2837       C  0.51299449  0.03342842  0.56270675    -0.20700
C2838       C  0.49321997  0.00346283  0.57609415     0.35500
C2839       C  0.51109782  0.96864731  0.57915833    -0.26700
C2840       C  0.54898127  0.96169623  0.56889073     0.01900
C2841       C  0.57032807  0.99326020  0.55899637     0.26700
C2842       C  0.55248099  0.02895679  0.55712373    -0.25800
N2843       N  0.45409687  0.00739663  0.58534074    -0.83200
H2844       H  0.49317739  0.94646278  0.58783230     0.12600
C2845       C  0.56501088  0.92186509  0.57034192     0.01900
N2846       N  0.60919178  0.98905533  0.54894064    -0.81800
H2847       H  0.56908539  0.05225702  0.54895747     0.17400
C2848       C  0.53720968  0.89266884  0.57025391    -0.26600
C2849       C  0.52190021  0.88286150  0.59887601     0.35400
C2850       C  0.54130984  0.89697803  0.62442365    -0.20600
C2851       C  0.58123219  0.90036371  0.61981225    -0.25900
C2852       C  0.59323085  0.91656671  0.59221050     0.26800
H2853       H  0.52114425  0.88632099  0.55015756     0.12500
N2854       N  0.48415019  0.86758356  0.60165862    -0.83200
H2855       H  0.59983749  0.90222786  0.63911494     0.17400
N2856       N  0.63094126  0.93171063  0.58808833    -0.81800
H2857       H  0.48329116  0.84260882  0.58848010     0.33000
H2858       H  0.46517168  0.88654613  0.59194151     0.37500
H2859       H  0.64741410  0.92615282  0.60703329     0.33000
H2860       H  0.64366884  0.91704147  0.56969654     0.29700
H2861       H  0.61130119  0.99779720  0.52641896     0.33000
H2862       H  0.62585688  0.00746125  0.56206165     0.29700
H2863       H  0.45289634  0.00078914  0.60820591     0.37600
H2864       H  0.43818737  0.98689967  0.57363369     0.33000
loop_ 
_geom_bond_atom_site_label_1 
_geom_bond_atom_site_label_2 
_geom_bond_distance 
_geom_bond_site_symmetry_2 
_ccdc_geom_bond_type 
Zr1           O2   2.440       .  S
Zr1           O3   2.458       .  S
Zr1           O4   2.504       .  S
Zr1           O7   2.476       .  S
Zr1           O9   2.384       .  S
Zr1          O11   2.411       .  S
Zr1          O12   2.413       .  S
Zr1        O1442   2.403       .  S
O2           H58   0.990       .  S
O2           H66   0.990       .  S
O3           C23   1.286       .  A
O4           C25   1.296       .  A
O5          Zr15   2.463       .  S
O5           C24   1.291   1_554  A
O6          Zr14   2.438       .  S
O6           C25   1.284       .  A
O7         C1456   1.293       .  A
O8        Zr1448   2.405       .  S
O8           C23   1.278       .  A
O9          Zr14   2.401       .  S
O9        Zr1448   2.389       .  S
O10         Zr15   2.390   1_556  S
O10         Zr16   2.375       .  S
O10       Zr1433   2.405       .  S
O10          H45   0.967       .  S
O11         Zr14   2.394       .  S
O11         Zr31   2.410       .  S
O11          H48   0.965       .  S
O12         Zr31   2.387       .  S
O12       Zr1447   2.397       .  S
Zr13         O38   2.439       .  S
Zr13         O32   2.459       .  S
Zr13         O40   2.500       .  S
Zr13         O28   2.515       .  S
Zr13         O19   2.423       .  S
Zr13         O20   2.423   1_554  S
Zr13         O22   2.400       .  S
Zr13       O1453   2.400   1_554  S
Zr14         O33   2.435       .  S
Zr14         O26   2.437   1_545  S
Zr14         O27   2.402   1_545  S
Zr14         O21   2.407       .  S
Zr14       O1452   2.412       .  S
Zr15         O17   2.435       .  S
Zr15         O39   2.438       .  S
Zr15         O41   2.465       .  S
Zr15         O19   2.399       .  S
Zr15         O22   2.401       .  S
Zr15       O1444   2.405   1_554  S
Zr16         O42   2.435   1_556  S
Zr16         O43   2.435   1_546  S
Zr16       O1450   2.437   1_545  S
Zr16       O1440   2.399       .  S
Zr16         O19   2.395   1_556  S
Zr16         O20   2.377       .  S
Zr16       O1441   2.392       .  S
O17          H54   0.990       .  S
O18       Zr1448   2.438   1_565  S
O18          H63   0.990       .  S
O18        H1481   0.990       .  S
O20       Zr1446   2.409       .  S
O20          H46   0.963       .  S
O21         Zr31   2.387       .  S
O21       Zr1445   2.398       .  S
O22       Zr1463   2.378   1_554  S
O22          H47   0.967       .  S
C23         C293   1.463       .  S
C24        O1439   1.293       .  A
C24        C1601   1.497       .  S
C25          C91   1.504       .  S
O26          H62   0.990       .  S
O27          C29   1.280       .  A
O28        C1461   1.300   1_544  A
C29        O1460   1.300   1_565  A
C29         C684   1.490       .  S
O30         Zr31   2.435       .  S
O30          H59   0.990       .  S
Zr31         O34   2.434       .  S
Zr31       O1467   2.438       .  S
Zr31       O1468   2.437       .  S
Zr31       O1454   2.370       .  S
O32          C37   1.285       .  A
O33          H50   0.990       .  S
O33          H65   0.990       .  S
O34          H51   0.989       .  S
O35       Zr1463   2.439       .  S
O35          H64   0.990       .  S
O35        H1487   0.990   1_556  S
O36       Zr1463   2.433       .  S
O36          C37   1.285   1_556  A
C37         C947   1.485       .  S
O38          H57   0.990       .  S
O38          H61   0.990       .  S
O39          H53   0.990       .  S
O39          H60   0.990       .  S
O40          C44   1.297       .  A
O41          C44   1.290       .  A
O42          H52   0.990       .  S
O43          H56   0.990   1_565  S
C44         C110   1.514       .  S
H49        O1450   0.990       .  S
H55        O1467   0.990       .  S
Zr67         O68   2.446       .  S
Zr67         O69   2.504       .  S
Zr67         O70   2.487       .  S
Zr67         O73   2.438       .  S
Zr67         O75   2.381       .  S
Zr67         O76   2.407       .  S
Zr67         O77   2.427       .  S
Zr67         O78   2.429       .  S
O68         H124   0.991       .  S
O68         H132   0.990       .  S
O69          C89   1.293   1_545  A
O70          C91   1.294       .  A
O71         Zr81   2.459       .  S
O71          C90   1.293       .  A
O72         Zr80   2.473       .  S
O72          C91   1.290       .  A
O73          C90   1.280       .  A
O74         Zr82   2.352   1_565  S
O74          C89   1.270       .  A
O75         Zr80   2.400       .  S
O75         Zr82   2.401       .  S
O76         Zr81   2.403       .  S
O76         Zr82   2.382       .  S
O76         H111   0.968       .  S
O77         Zr80   2.385       .  S
O77         Zr97   2.393       .  S
O77         H114   0.962       .  S
O78         Zr81   2.391       .  S
O78         Zr97   2.396       .  S
Zr79        O104   2.444       .  S
Zr79         O98   2.459       .  S
Zr79        O106   2.487       .  S
Zr79         O94   2.438       .  S
Zr79         O85   2.386       .  S
Zr79         O86   2.424       .  S
Zr79         O87   2.401       .  S
Zr79         O88   2.394       .  S
Zr80         O99   2.442       .  S
Zr80         O92   2.437       .  S
Zr80         O93   2.418       .  S
Zr80         O86   2.409       .  S
Zr80         O87   2.402       .  S
Zr81         O83   2.437       .  S
Zr81        O105   2.436       .  S
Zr81        O107   2.490       .  S
Zr81         O85   2.379       .  S
Zr81         O88   2.413       .  S
Zr82        O108   2.440       .  S
Zr82        O109   2.436       .  S
Zr82         O84   2.437   1_545  S
Zr82         O85   2.369       .  S
Zr82         O86   2.351       .  S
O83         H120   0.990       .  S
O84         H115   0.990       .  S
O84         H129   0.990       .  S
O86         H112   0.966       .  S
O87         Zr97   2.370       .  S
O88         Zr97   2.394       .  S
O88         H113   0.965       .  S
C89         C750   1.478       .  S
C90        C1013   1.469       .  S
O92         H128   0.990       .  S
O93          C95   1.287       .  A
O94          C95   1.282       .  A
C95         C359   1.453       .  S
O96         Zr97   2.436       .  S
O96         H125   0.991       .  S
Zr97        O100   2.438       .  S
Zr97        O101   2.437       .  S
Zr97        O102   2.439       .  S
O98         C103   1.287       .  A
O99         H116   0.990       .  S
O99         H131   0.990       .  S
O100        H117   0.990       .  S
O101        H121   0.990       .  S
O101        H130   0.990       .  S
O102        C103   1.282       .  A
C103        C235   1.483       .  S
O104        H123   0.990       .  S
O104        H127   0.991       .  S
O105        H119   0.990       .  S
O105        H126   0.990       .  S
O106        C110   1.293       .  A
O107        C110   1.294       .  A
O108        H118   0.990   1_545  S
O109        H122   0.991       .  S
Zr133       O134   2.446       .  S
Zr133       O135   2.502       .  S
Zr133       O136   2.502       .  S
Zr133       O139   2.418       .  S
Zr133       O141   2.386       .  S
Zr133       O142   2.412       .  S
Zr133       O143   2.426       .  S
Zr133       O144   2.441       .  S
O134        H190   0.990       .  S
O134        H198   0.991       .  S
O135        C155   1.288       .  A
O136        C157   1.294       .  A
O137       Zr147   2.482       .  S
O137        C156   1.298       .  A
O138       Zr146   2.437       .  S
O138        C157   1.286       .  A
O139        C156   1.277       .  A
O140       Zr148   2.372       .  S
O140        C155   1.264       .  A
O141       Zr146   2.392       .  S
O141       Zr148   2.406       .  S
O142       Zr147   2.386       .  S
O142       Zr148   2.385       .  S
O142        H177   0.965       .  S
O143       Zr146   2.392       .  S
O143       Zr163   2.408       .  S
O143        H180   0.964       .  S
O144       Zr147   2.392       .  S
O144       Zr163   2.426       .  S
Zr145      O1602   2.442       .  S
Zr145       O160   2.441       .  S
Zr145      O1596   2.471       .  S
Zr145      O1604   2.486       .  S
Zr145       O151   2.401       .  S
Zr145       O152   2.419       .  S
Zr145       O153   2.384       .  S
Zr145       O154   2.394       .  S
Zr146       O165   2.437       .  S
Zr146       O158   2.435       .  S
Zr146       O159   2.400       .  S
Zr146       O152   2.408       .  S
Zr146       O153   2.399       .  S
Zr147      O1581   2.435       .  S
Zr147      O1603   2.440       .  S
Zr147      O1605   2.465       .  S
Zr147       O151   2.392       .  S
Zr147       O154   2.416       .  S
Zr148       O174   2.435       .  S
Zr148       O150   2.439       .  S
Zr148      O1607   2.437       .  S
Zr148       O151   2.375       .  S
Zr148       O152   2.360       .  S
O149      Zr1579   2.437   1_554  S
O149        H186   0.990       .  S
O150        H181   0.990       .  S
O150        H195   0.990       .  S
O152        H178   0.966       .  S
O153       Zr163   2.363       .  S
O154       Zr163   2.382       .  S
O154       H1611   0.966       .  S
C155       C1080   1.476       .  S
C156        C821   1.487       .  S
C157        C242   1.501       .  S
O158        H194   0.990       .  S
O159        C161   1.278       .  A
O160        C161   1.288       .  A
C161        C301   1.448       .  S
O162       Zr163   2.435       .  S
O162        H191   0.990       .  S
Zr163       O166   2.436       .  S
Zr163       O167   2.440       .  S
Zr163       O168   2.481       .  S
O164      Zr1577   2.458       .  S
O164       C1601   1.287       .  A
O165        H182   0.990       .  S
O165        H197   0.990       .  S
O166        H183   0.990       .  S
O167        H187   0.990       .  S
O167        H196   0.989       .  S
O168        C169   1.291       .  A
C169       O1596   1.288       .  A
C169       C1456   1.510       .  S
O170      Zr1577   2.442   1_554  S
O170        H189   0.990       .  S
O170        H193   0.991       .  S
O171      Zr1579   2.437   1_554  S
O171        H185   0.990       .  S
O171        H192   0.990       .  S
O172      Zr1577   2.504   1_554  S
O172        C176   1.297       .  A
O173      Zr1579   2.470   1_554  S
O173        C176   1.293       .  A
O174        H184   0.990       .  S
O175      Zr1580   2.437   1_554  S
O175       H1620   0.990       .  S
C176        C223   1.513       .  S
H179       O1586   0.965   1_554  S
H188       O1607   0.990       .  S
Zr199       O200   2.444       .  S
Zr199       O201   2.524       .  S
Zr199       O202   2.494       .  S
Zr199       O205   2.438       .  S
Zr199       O207   2.388       .  S
Zr199       O208   2.403       .  S
Zr199       O209   2.428       .  S
Zr199       O210   2.430       .  S
O200        H256   0.990       .  S
O200        H264   0.991       .  S
O201        C221   1.299       .  A
O202        C223   1.296       .  A
O203       Zr213   2.468       .  S
O203        C222   1.293       .  A
O204       Zr212   2.495       .  S
O204        C223   1.296       .  A
O205        C222   1.279       .  A
O206       Zr214   2.330       .  S
O206        C221   1.265       .  A
O207       Zr212   2.407       .  S
O207       Zr214   2.398       .  S
O208       Zr213   2.389       .  S
O208       Zr214   2.388       .  S
O208        H243   0.966       .  S
O209       Zr212   2.399       .  S
O209       Zr229   2.388       .  S
O209        H246   0.962       .  S
O210       Zr213   2.381       .  S
O210       Zr229   2.403       .  S
Zr211       O236   2.444       .  S
Zr211       O230   2.462       .  S
Zr211       O238   2.476       .  S
Zr211       O226   2.466       .  S
Zr211       O217   2.382       .  S
Zr211       O218   2.415       .  S
Zr211       O219   2.384       .  S
Zr211       O220   2.401       .  S
Zr212       O231   2.438       .  S
Zr212       O224   2.434       .  S
Zr212       O225   2.464       .  S
Zr212       O218   2.417       .  S
Zr212       O219   2.403       .  S
Zr213       O215   2.436       .  S
Zr213       O237   2.438       .  S
Zr213       O239   2.483       .  S
Zr213       O217   2.370       .  S
Zr213       O220   2.413       .  S
Zr214       O240   2.437       .  S
Zr214       O241   2.441       .  S
Zr214       O216   2.439       .  S
Zr214       O217   2.351       .  S
Zr214       O218   2.352       .  S
O215        H252   0.990       .  S
O216        H247   0.990       .  S
O216        H261   0.990       .  S
O218        H244   0.963       .  S
O219       Zr229   2.377       .  S
O220       Zr229   2.386       .  S
O220        H245   0.965       .  S
C221       C1146   1.473       .  S
C222        C881   1.479       .  S
O224        H260   0.990       .  S
O225        C227   1.294       .  A
O226        C227   1.290       .  A
C227        C367   1.481       .  S
O228       Zr229   2.440       .  S
O228        H257   0.990       .  S
Zr229       O232   2.437       .  S
Zr229       O233   2.444       .  S
Zr229       O234   2.438       .  S
O230        C235   1.287       .  A
O231        H248   0.990       .  S
O231        H263   0.990       .  S
O232        H249   0.990       .  S
O233        H253   0.989       .  S
O233        H262   0.990       .  S
O234        C235   1.282       .  A
O236        H255   0.990       .  S
O236        H259   0.990       .  S
O237        H251   0.990       .  S
O237        H258   0.990       .  S
O238        C242   1.294       .  A
O239        C242   1.294       .  A
O240        H250   0.990       .  S
O241        H254   0.989       .  S
Zr265       O266   2.432       .  S
Zr265       O267   2.388       .  S
Zr265       O268   2.461       .  S
Zr265       O271   2.425       .  S
Zr265       O273   2.323       .  S
Zr265       O274   2.379       .  S
Zr265       O275   2.402   1_565  S
Zr265       O276   2.390   1_565  S
O266        H322   0.990   1_565  S
O266        H330   0.990       .  S
O267        C287   1.274       .  A
O268        C289   1.284       .  A
O269      Zr1711   2.411   1_565  S
O269        C288   1.280       .  A
O270       Zr278   2.402   1_565  S
O270        C289   1.278       .  A
O271        C288   1.285       .  A
O272       Zr280   2.456       .  S
O272        C287   1.284       .  A
O273       Zr278   2.350   1_565  S
O273       Zr280   2.327       .  S
O274       Zr280   2.343       .  S
O274      Zr1711   2.426   1_565  S
O274        H309   0.963       .  S
O275       Zr278   2.417       .  S
O275       Zr295   2.437       .  S
O275        H312   0.966       .  S
O276       Zr295   2.417       .  S
O276      Zr1711   2.415       .  S
Zr277       O302   2.459   1_556  S
Zr277       O296   2.383       .  S
Zr277       O304   2.416   1_556  S
Zr277      O1724   2.404       .  S
Zr277       O283   2.427   1_556  S
Zr277      O1716   2.433   1_545  S
Zr277      O1717   2.376       .  S
Zr277      O1718   2.387       .  S
Zr278       O297   2.436       .  S
Zr278       O290   2.430   1_545  S
Zr278       O291   2.460       .  S
Zr278       O284   2.389   1_545  S
Zr278       O285   2.347       .  S
Zr279       O281   2.435       .  S
Zr279       O303   2.449   1_556  S
Zr279       O305   2.451   1_556  S
Zr279      O1701   2.413   1_545  S
Zr279       O283   2.418   1_556  S
Zr279      O1706   2.421   1_545  S
Zr279      O1708   2.422       .  S
Zr279      O1718   2.388       .  S
Zr280       O282   2.409       .  S
Zr280      O1738   2.422       .  S
Zr280      O1739   2.426       .  S
Zr280       O284   2.414       .  S
Zr280      O1715   2.375   1_565  S
O281        H318   0.990       .  S
O282        H313   0.989       .  S
O282        H327   0.991       .  S
O283      Zr1712   2.372   1_544  S
O284      Zr1709   2.431   1_565  S
O284        H310   0.957       .  S
O285       Zr295   2.399       .  S
O285      Zr1709   2.382       .  S
O286       Zr295   2.397       .  S
O286      Zr1709   2.392       .  S
O286      Zr1711   2.393       .  S
O286       H1743   0.968       .  S
C287        C425   1.457       .  S
C288        C557   1.449       .  S
C289       C1377   1.485       .  S
O290        H326   0.990       .  S
O291        C293   1.286       .  A
O292      Zr1709   2.406       .  S
O292        C293   1.278       .  A
O294       Zr295   2.435       .  S
O294        H323   0.989       .  S
Zr295       O298   2.434       .  S
Zr295       O299   2.443       .  S
Zr295       O300   2.424       .  S
O296       C1733   1.269       .  A
O297        H314   0.985       .  S
O297        H329   0.990       .  S
O298        H315   0.990       .  S
O299        H319   0.990       .  S
O299        H328   0.989       .  S
O300        C301   1.282       .  A
C301       O1728   1.272       .  A
O302        H321   0.990       .  S
O302        H325   0.990       .  S
O303        H317   0.990       .  S
O303        H324   0.990       .  S
O304        C308   1.266       .  A
O305        C308   1.281       .  A
O306      Zr1712   2.419   1_554  S
O306        H316   0.989       .  S
O307      Zr1712   2.428   1_554  S
O307        H320   0.990       .  S
C308       C1405   1.488       .  S
H311       O1718   0.969       .  S
Zr331       O332   2.431       .  S
Zr331       O333   2.345       .  S
Zr331       O334   2.532       .  S
Zr331       O337   2.399       .  S
Zr331       O339   2.293       .  S
Zr331       O340   2.397       .  S
Zr331       O341   2.410   1_565  S
Zr331       O342   2.409   1_565  S
O332        H388   0.989       .  S
O332        H396   0.989   1_565  S
O333        C353   1.267       .  A
O334        C355   1.299       .  A
O335       Zr345   2.459   1_565  S
O335        C354   1.290       .  A
O336       Zr344   2.469   1_565  S
O336        C355   1.298       .  A
O337        C354   1.281       .  A
O338       Zr346   2.484       .  S
O338        C353   1.290       .  A
O339       Zr344   2.328   1_565  S
O339       Zr346   2.261       .  S
O340       Zr345   2.393   1_565  S
O340       Zr346   2.360       .  S
O340        H375   0.964       .  S
O341       Zr344   2.434       .  S
O341       Zr361   2.422       .  S
O341        H378   0.963       .  S
O342       Zr345   2.432       .  S
O342       Zr361   2.394       .  S
Zr343       O368   2.437       .  S
Zr343       O362   2.471       .  S
Zr343       O370   2.410       .  S
Zr343       O358   2.312       .  S
Zr343       O349   2.376   1_545  S
Zr343       O350   2.452       .  S
Zr343       O352   2.368       .  S
Zr343       O351   2.236       .  S
Zr344       O363   2.438       .  S
Zr344       O356   2.440       .  S
Zr344       O357   2.502       .  S
Zr344       O350   2.402       .  S
Zr344       O351   2.268       .  S
Zr345       O347   2.434       .  S
Zr345       O369   2.435   1_545  S
Zr345       O371   2.619   1_545  S
Zr345       O349   2.256   1_545  S
Zr345       O352   2.401       .  S
Zr346       O372   2.430       .  S
Zr346       O373   2.433       .  S
Zr346       O348   2.449       .  S
Zr346       O349   2.346       .  S
Zr346       O350   2.491   1_565  S
O347        H384   0.990       .  S
O348        H379   0.989       .  S
O348        H393   0.989       .  S
O350        H376   0.964   1_545  S
O351       Zr361   2.268       .  S
O352       Zr361   2.413       .  S
O352        H377   0.967       .  S
C353        C491   1.439       .  S
C354        C623   1.466       .  S
C355       C1418   1.502       .  S
O356        H392   0.989       .  S
O357        C359   1.293       .  A
O358        C359   1.264       .  A
O360       Zr361   2.432       .  S
O360        H389   0.990       .  S
Zr361       O364   2.436       .  S
Zr361       O365   2.440       .  S
Zr361       O366   2.429       .  S
O362        C367   1.290       .  A
O363        H380   0.990       .  S
O363        H395   0.990       .  S
O364        H381   0.990       .  S
O365        H385   0.990       .  S
O365        H394   0.990       .  S
O366        C367   1.283       .  A
O368        H387   0.989       .  S
O368        H391   0.990       .  S
O369        H383   0.990       .  S
O369        H390   0.990       .  S
O370        C374   1.273   1_545  A
O371        C374   1.326       .  A
O372        H382   0.990       .  S
O373        H386   0.991       .  S
C374       C1390   1.499       .  S
Zr397       O398   2.441       .  S
Zr397       O399   2.500       .  S
Zr397       O400   2.497       .  S
Zr397       O403   2.466       .  S
Zr397       O405   2.397       .  S
Zr397       O406   2.417       .  S
Zr397       O407   2.425       .  S
Zr397       O408   2.419       .  S
O398        H454   0.991       .  S
O398        H462   0.990       .  S
O399        C419   1.284       .  A
O400        C421   1.298       .  A
O401       Zr411   2.434       .  S
O401        C420   1.289       .  A
O402       Zr410   2.437       .  S
O402        C421   1.285       .  A
O403        C420   1.286       .  A
O404       Zr412   2.388       .  S
O404        C419   1.264       .  A
O405       Zr410   2.398       .  S
O405       Zr412   2.395       .  S
O406       Zr411   2.390       .  S
O406       Zr412   2.389       .  S
O406        H441   0.963       .  S
O407       Zr410   2.401       .  S
O407       Zr427   2.390       .  S
O407        H444   0.961       .  S
O408       Zr411   2.383       .  S
O408       Zr427   2.390       .  S
Zr409       O434   2.443       .  S
Zr409       O428   2.480       .  S
Zr409       O436   2.476       .  S
Zr409       O424   2.448       .  S
Zr409       O415   2.391       .  S
Zr409       O416   2.421       .  S
Zr409       O417   2.379       .  S
Zr409       O418   2.391       .  S
Zr410       O429   2.437       .  S
Zr410       O422   2.433       .  S
Zr410       O423   2.427       .  S
Zr410       O416   2.407       .  S
Zr410       O417   2.391       .  S
Zr411       O413   2.436       .  S
Zr411       O435   2.438       .  S
Zr411       O437   2.447       .  S
Zr411       O415   2.384       .  S
Zr411       O418   2.407       .  S
Zr412       O438   2.436       .  S
Zr412       O439   2.436       .  S
Zr412       O414   2.444       .  S
Zr412       O415   2.377       .  S
Zr412       O416   2.371       .  S
O413        H450   0.990       .  S
O414        H445   0.989       .  S
O414        H459   0.990       .  S
O416        H442   0.962       .  S
O417       Zr427   2.372       .  S
O418       Zr427   2.388       .  S
O418        H443   0.966       .  S
C419        C829   1.485       .  S
C420       C1079   1.477       .  S
C421        C506   1.493       .  S
O422        H458   0.990       .  S
O423        C425   1.284       .  A
O424        C425   1.286       .  A
O426       Zr427   2.436       .  S
O426        H455   0.990       .  S
Zr427       O430   2.437       .  S
Zr427       O431   2.439       .  S
Zr427       O432   2.424       .  S
O428        C433   1.291       .  A
O429        H446   0.990       .  S
O429        H461   0.990       .  S
O430        H447   0.990       .  S
O431        H451   0.990       .  S
O431        H460   0.990       .  S
O432        C433   1.280       .  A
C433        C565   1.482       .  S
O434        H453   0.991       .  S
O434        H457   0.990       .  S
O435        H449   0.990       .  S
O435        H456   0.990       .  S
O436       C1872   1.294       .  A
O437       C1872   1.287       .  A
O438        H448   0.988       .  S
O439        H452   0.990       .  S
C440       O1868   1.297       .  A
C440       O1869   1.287       .  A
C440        C487   1.497       .  S
Zr463       O464   2.441       .  S
Zr463       O465   2.471       .  S
Zr463       O466   2.496       .  S
Zr463       O469   2.435       .  S
Zr463       O471   2.384       .  S
Zr463       O472   2.418       .  S
Zr463       O473   2.419       .  S
Zr463       O474   2.417       .  S
O464        H520   0.990       .  S
O464        H528   0.990       .  S
O465        C485   1.282       .  A
O466        C487   1.296       .  A
O467       Zr477   2.429       .  S
O467        C486   1.288       .  A
O468       Zr476   2.443       .  S
O468        C487   1.286       .  A
O469        C486   1.281       .  A
O470       Zr478   2.365       .  S
O470        C485   1.263       .  A
O471       Zr476   2.382       .  S
O471       Zr478   2.400       .  S
O472       Zr477   2.386       .  S
O472       Zr478   2.383       .  S
O472        H507   0.966       .  S
O473       Zr476   2.393       .  S
O473       Zr493   2.396       .  S
O473        H510   0.961       .  S
O474       Zr477   2.384       .  S
O474       Zr493   2.386       .  S
Zr475       O500   2.442       .  S
Zr475       O494   2.459       .  S
Zr475       O502   2.502       .  S
Zr475       O490   2.438       .  S
Zr475       O481   2.382       .  S
Zr475       O482   2.416       .  S
Zr475       O483   2.387       .  S
Zr475       O484   2.388       .  S
Zr476       O495   2.438       .  S
Zr476       O488   2.431       .  S
Zr476       O489   2.416       .  S
Zr476       O482   2.407       .  S
Zr476       O483   2.393       .  S
Zr477       O479   2.435       .  S
Zr477       O501   2.440       .  S
Zr477       O503   2.436       .  S
Zr477       O481   2.381       .  S
Zr477       O484   2.403       .  S
Zr478       O504   2.435       .  S
Zr478       O505   2.437       .  S
Zr478       O480   2.437       .  S
Zr478       O481   2.365       .  S
Zr478       O482   2.357       .  S
O479        H516   0.989       .  S
O480        H511   0.990       .  S
O480        H525   0.989       .  S
O482        H508   0.966       .  S
O483       Zr493   2.374       .  S
O484       Zr493   2.389       .  S
O484        H509   0.965       .  S
C485        C882   1.458       .  S
C486       C1145   1.456       .  S
O488        H524   0.990       .  S
O489        C491   1.282       .  A
O490        C491   1.286       .  A
O492       Zr493   2.439       .  S
O492        H521   0.990       .  S
Zr493       O496   2.438       .  S
Zr493       O497   2.445       .  S
Zr493       O498   2.420       .  S
O494        C499   1.287       .  A
O495        H512   0.990       .  S
O495        H527   0.990       .  S
O496        H513   0.990       .  S
O497        H517   0.990       .  S
O497        H526   0.989       .  S
O498        C499   1.279       .  A
C499        C631   1.472       .  S
O500        H519   0.990       .  S
O500        H523   0.990       .  S
O501        H515   0.990       .  S
O501        H522   0.990       .  S
O502        C506   1.298       .  A
O503        C506   1.285       .  A
O504        H514   0.990       .  S
O505        H518   0.991       .  S
Zr529       O530   2.447       .  S
Zr529       O531   2.523   1_565  S
Zr529       O532   2.517       .  S
Zr529       O535   2.454       .  S
Zr529       O537   2.387       .  S
Zr529       O539   2.427       .  S
Zr529      O1970   2.402   1_554  S
Zr529      O1972   2.433   1_554  S
O530        H586   0.990       .  S
O530        H594   0.991       .  S
O531        C551   1.298       .  A
O532        C553   1.302       .  A
O533       Zr543   2.459       .  S
O533        C552   1.291       .  A
O534       Zr542   2.461       .  S
O534        C553   1.288       .  A
O535       C1984   1.283       .  A
O536      Zr1976   2.349       .  S
O536        C551   1.269   1_556  A
O537       Zr542   2.413       .  S
O537      Zr1976   2.397   1_564  S
O538       Zr543   2.392       .  S
O538       Zr544   2.385   1_565  S
O538      Zr1961   2.401       .  S
O538        H573   0.964       .  S
O539       Zr542   2.399       .  S
O539      Zr1991   2.392       .  S
O539        H576   0.962       .  S
O540       Zr543   2.390       .  S
O540       Zr559   2.397       .  S
O540      Zr1961   2.431       .  S
Zr541       O566   2.442       .  S
Zr541       O560   2.463       .  S
Zr541       O568   2.489       .  S
Zr541       O556   2.412       .  S
Zr541       O547   2.371       .  S
Zr541       O548   2.428       .  S
Zr541       O549   2.394       .  S
Zr541       O550   2.390       .  S
Zr542       O561   2.435       .  S
Zr542       O554   2.437   1_565  S
Zr542       O555   2.456   1_554  S
Zr542      O1980   2.401   1_554  S
Zr542      O1981   2.394   1_554  S
Zr543       O545   2.435       .  S
Zr543       O567   2.442       .  S
Zr543       O569   2.498       .  S
Zr543       O547   2.364       .  S
Zr543       O550   2.411       .  S
Zr544       O570   2.437       .  S
Zr544       O571   2.437       .  S
Zr544       O546   2.437       .  S
Zr544      O1968   2.332       .  S
Zr544       O547   2.353   1_545  S
Zr544       O548   2.344   1_545  S
Zr544      O1969   2.402   1_545  S
O545        H582   0.989       .  S
O546        H577   0.989       .  S
O546       H2023   0.990       .  S
O548      Zr1974   2.402       .  S
O548        H574   0.955       .  S
O549       Zr559   2.375       .  S
O549      Zr1974   2.401       .  S
O550       Zr559   2.396       .  S
O550        H575   0.965       .  S
C551        C948   1.477       .  S
C552       O1967   1.285       .  A
C552       C2115   1.472       .  S
C553        C638   1.512       .  S
O554        H590   0.990       .  S
O555       C1989   1.291       .  A
O556        C557   1.281       .  A
C557       O1987   1.290       .  A
O558      Zr1991   2.440       .  S
O558        H587   0.990       .  S
Zr559       O563   2.438       .  S
Zr559      O1990   2.436       .  S
Zr559      O1994   2.436       .  S
Zr559       O564   2.440       .  S
Zr559      O1971   2.385       .  S
O560        C565   1.287       .  A
O561        H578   0.990       .  S
O561        H593   0.990       .  S
O562      Zr1991   2.437       .  S
O562        H579   0.990       .  S
O563        H583   0.990       .  S
O563        H592   0.989       .  S
O564        C565   1.282       .  A
O566        H585   0.990       .  S
O566        H589   0.991       .  S
O567        H581   0.990       .  S
O567        H588   0.990       .  S
O568        C572   1.296       .  A
O569        C572   1.297       .  A
O570        H580   0.990       .  S
O571        H584   0.990       .  S
C572        C619   1.511       .  S
H591       O1978   0.989   1_554  S
Zr595       O596   2.441       .  S
Zr595       O597   2.532   1_565  S
Zr595       O598   2.517       .  S
Zr595       O601   2.452       .  S
Zr595       O603   2.388       .  S
Zr595       O604   2.397       .  S
Zr595       O605   2.432       .  S
Zr595       O606   2.433       .  S
O596        H652   0.990       .  S
O596        H660   0.990       .  S
O597        C617   1.300       .  A
O598        C619   1.298       .  A
O599       Zr609   2.434       .  S
O599        C618   1.289       .  A
O600       Zr608   2.465       .  S
O600        C619   1.292       .  A
O601        C618   1.283       .  A
O602       Zr610   2.341       .  S
O602        C617   1.267       .  A
O603       Zr608   2.398       .  S
O603       Zr610   2.398   1_565  S
O604       Zr609   2.378       .  S
O604       Zr610   2.389   1_565  S
O604        H639   0.966       .  S
O605       Zr608   2.395       .  S
O605       Zr625   2.383       .  S
O605        H642   0.963       .  S
O606       Zr609   2.389       .  S
O606       Zr625   2.399       .  S
Zr607       O632   2.445       .  S
Zr607       O626   2.458       .  S
Zr607       O634   2.536       .  S
Zr607       O622   2.438       .  S
Zr607       O613   2.382       .  S
Zr607       O614   2.431       .  S
Zr607       O615   2.399       .  S
Zr607       O616   2.382       .  S
Zr608       O627   2.439       .  S
Zr608       O620   2.434   1_565  S
Zr608       O621   2.443       .  S
Zr608       O614   2.414       .  S
Zr608       O615   2.406       .  S
Zr609       O611   2.441       .  S
Zr609       O633   2.439       .  S
Zr609       O635   2.436       .  S
Zr609       O613   2.390       .  S
Zr609       O616   2.406       .  S
Zr610       O636   2.437       .  S
Zr610       O637   2.439       .  S
Zr610       O612   2.440       .  S
Zr610       O613   2.378   1_545  S
Zr610       O614   2.360   1_545  S
O611        H648   0.988       .  S
O612        H643   0.990       .  S
O612        H657   0.990       .  S
O614        H640   0.963       .  S
O615       Zr625   2.368       .  S
O616       Zr625   2.381       .  S
O616        H641   0.966       .  S
C617       C1014   1.477       .  S
C618        C749   1.475       .  S
O620        H656   0.990       .  S
O621        C623   1.286       .  A
O622        C623   1.289       .  A
O624       Zr625   2.435       .  S
O624        H653   0.990       .  S
Zr625       O628   2.437       .  S
Zr625       O629   2.439       .  S
Zr625       O630   2.421       .  S
O626        C631   1.286       .  A
O627        H644   0.990       .  S
O627        H659   0.990       .  S
O628        H645   0.991       .  S
O629        H649   0.990       .  S
O629        H658   0.990       .  S
O630        C631   1.277       .  A
O632        H651   0.990       .  S
O632        H655   0.991       .  S
O633        H647   0.990       .  S
O633        H654   0.990       .  S
O634        C638   1.306       .  A
O635        C638   1.285       .  A
O636        H646   0.990       .  S
O637        H650   0.990       .  S
Zr661       O662   2.445       .  S
Zr661       O663   2.498   1_655  S
Zr661       O664   2.507       .  S
Zr661       O667   2.440       .  S
Zr661       O669   2.387       .  S
Zr661       O671   2.416       .  S
Zr661      O2102   2.405   1_554  S
Zr661      O2104   2.441   1_554  S
O662        H718   0.990       .  S
O662        H726   0.991       .  S
O663        C683   1.289       .  A
O664        C685   1.298       .  A
O665       Zr675   2.451       .  S
O665        C684   1.291       .  A
O666       Zr674   2.421       .  S
O666        C685   1.282       .  A
O667       C2116   1.283   1_554  A
O668      Zr2108   2.373   1_554  S
O668        C683   1.265       .  A
O669       Zr674   2.398       .  S
O669      Zr2108   2.396   1_654  S
O670       Zr675   2.394       .  S
O670       Zr676   2.384   1_655  S
O670      Zr2093   2.404       .  S
O670        H705   0.966       .  S
O671       Zr674   2.397       .  S
O671      Zr2123   2.385   1_554  S
O671        H708   0.963       .  S
O672       Zr675   2.387       .  S
O672       Zr691   2.408       .  S
O672      Zr2093   2.428       .  S
Zr673       O698   2.443       .  S
Zr673       O692   2.472       .  S
Zr673       O700   2.496       .  S
Zr673       O688   2.457       .  S
Zr673       O679   2.401       .  S
Zr673       O680   2.417       .  S
Zr673       O681   2.386       .  S
Zr673       O682   2.394       .  S
Zr674       O693   2.440       .  S
Zr674       O686   2.438       .  S
Zr674       O687   2.406       .  S
Zr674      O2112   2.416   1_554  S
Zr674      O2113   2.392   1_554  S
Zr675       O677   2.436       .  S
Zr675       O699   2.440       .  S
Zr675       O701   2.459       .  S
Zr675       O679   2.393       .  S
Zr675       O682   2.409       .  S
Zr676       O702   2.437       .  S
Zr676       O703   2.433       .  S
Zr676       O678   2.440       .  S
Zr676      O2100   2.379       .  S
Zr676       O679   2.383   1_455  S
Zr676       O680   2.371   1_455  S
Zr676      O2101   2.394   1_455  S
O677        H714   0.990       .  S
O678        H709   0.991       .  S
O678       H2155   0.990       .  S
O680      Zr2106   2.415       .  S
O680        H706   0.965       .  S
O681       Zr691   2.366       .  S
O681      Zr2106   2.393       .  S
O682       Zr691   2.383       .  S
O682        H707   0.967       .  S
C683       C1984   1.474       .  S
C684       O2099   1.284       .  A
C685        C770   1.490       .  S
O686        H722   0.990   1_655  S
O687       C2121   1.279   1_554  A
O688        C689   1.290       .  A
C689       O2119   1.274       .  A
C689       C1225   1.447       .  S
O690      Zr2123   2.439   1_554  S
O690        H719   0.990       .  S
Zr691       O695   2.436       .  S
Zr691      O2122   2.436       .  S
Zr691      O2126   2.435       .  S
Zr691       O696   2.446       .  S
Zr691      O2103   2.391       .  S
O692        C697   1.289       .  A
O693        H710   0.990       .  S
O693        H725   0.990       .  S
O694      Zr2123   2.439   1_554  S
O694        H711   0.990       .  S
O695        H715   0.990       .  S
O695        H724   0.990       .  S
O696        C697   1.285       .  A
C697        C816   1.492       .  S
O698        H717   0.990       .  S
O698        H721   0.990       .  S
O699        H713   0.990       .  S
O699        H720   0.990       .  S
O700        C704   1.297       .  A
O701        C704   1.289       .  A
O702        H712   0.990       .  S
O703        H716   0.990       .  S
C704        C751   1.506       .  S
H723       O2110   0.990       .  S
Zr727       O728   2.443       .  S
Zr727       O729   2.515   1_655  S
Zr727       O730   2.499       .  S
Zr727       O733   2.468       .  S
Zr727       O735   2.384       .  S
Zr727       O736   2.403       .  S
Zr727       O737   2.431       .  S
Zr727       O738   2.424       .  S
O728        H784   0.990       .  S
O728        H792   0.990       .  S
O729        C749   1.296       .  A
O730        C751   1.298       .  A
O731       Zr741   2.423       .  S
O731        C750   1.286       .  A
O732       Zr740   2.467       .  S
O732        C751   1.291       .  A
O733        C750   1.286       .  A
O734       Zr742   2.348   1_455  S
O734        C749   1.269       .  A
O735       Zr740   2.397       .  S
O735       Zr742   2.393       .  S
O736       Zr741   2.389       .  S
O736       Zr742   2.387       .  S
O736        H771   0.966       .  S
O737       Zr740   2.391       .  S
O737       Zr757   2.392       .  S
O737        H774   0.963       .  S
O738       Zr741   2.387       .  S
O738       Zr757   2.392       .  S
Zr739       O764   2.443       .  S
Zr739       O758   2.473       .  S
Zr739       O766   2.496       .  S
Zr739       O754   2.454       .  S
Zr739       O745   2.389       .  S
Zr739       O746   2.420       .  S
Zr739       O747   2.388       .  S
Zr739       O748   2.396       .  S
Zr740       O759   2.440       .  S
Zr740       O752   2.419       .  S
Zr740       O753   2.446       .  S
Zr740       O746   2.398       .  S
Zr740       O747   2.387       .  S
Zr741       O743   2.437       .  S
Zr741       O765   2.446       .  S
Zr741       O767   2.437       .  S
Zr741       O745   2.382       .  S
Zr741       O748   2.408       .  S
Zr742       O768   2.435   1_655  S
Zr742       O769   2.437   1_655  S
Zr742       O744   2.440   1_655  S
Zr742       O745   2.362       .  S
Zr742       O746   2.365       .  S
O743        H780   0.990       .  S
O744        H775   0.990       .  S
O744        H789   0.990       .  S
O746        H772   0.964       .  S
O747       Zr757   2.370       .  S
O748       Zr757   2.387       .  S
O748        H773   0.967       .  S
O752        H788   0.990   1_655  S
O753        C755   1.291       .  A
O754        C755   1.287       .  A
C755       C1277   1.472       .  S
O756       Zr757   2.438       .  S
O756        H785   0.990       .  S
Zr757       O760   2.435       .  S
Zr757       O761   2.441       .  S
Zr757       O762   2.421       .  S
O758        C763   1.290       .  A
O759        H776   0.990       .  S
O759        H791   0.991       .  S
O760        H777   0.990       .  S
O761        H781   0.990       .  S
O761        H790   0.990       .  S
O762        C763   1.279       .  A
C763        C895   1.480       .  S
O764        H783   0.990       .  S
O764        H787   0.991       .  S
O765        H779   0.990       .  S
O765        H786   0.989       .  S
O766        C770   1.297       .  A
O767        C770   1.283       .  A
O768        H778   0.989       .  S
O769        H782   0.990       .  S
Zr793       O794   2.439       .  S
Zr793       O795   2.459       .  S
Zr793       O799   2.462       .  S
Zr793      O2228   2.536       .  S
Zr793       O801   2.378       .  S
Zr793       O802   2.401       .  S
Zr793       O803   2.401       .  S
Zr793       O804   2.426       .  S
O794       H2282   0.990       .  S
O794       H2290   0.990       .  S
O795        C815   1.288       .  A
O796      Zr2225   2.558   1_554  S
O796        C817   1.309       .  A
O797       Zr807   2.465       .  S
O797        C816   1.289       .  A
O798      Zr2238   2.419   1_554  S
O798        C817   1.280       .  A
O799        C816   1.291       .  A
O800       Zr808   2.407       .  S
O800        C815   1.278       .  A
O801       Zr806   2.397       .  S
O801       Zr808   2.396       .  S
O802       Zr807   2.390       .  S
O802       Zr808   2.368       .  S
O802        H837   0.965       .  S
O803       Zr806   2.386       .  S
O803       Zr823   2.394       .  S
O803        H840   0.966       .  S
O804       Zr807   2.403       .  S
O804       Zr823   2.397       .  S
Zr805       O830   2.439       .  S
Zr805       O824   2.469       .  S
Zr805       O832   2.524       .  S
Zr805       O820   2.531       .  S
Zr805       O811   2.423       .  S
Zr805       O812   2.421       .  S
Zr805       O813   2.400       .  S
Zr805       O814   2.403       .  S
Zr806       O825   2.441       .  S
Zr806       O818   2.436       .  S
Zr806       O819   2.377       .  S
Zr806      O2230   2.412       .  S
Zr806       O812   2.409       .  S
Zr806       O813   2.405       .  S
Zr807       O809   2.435       .  S
Zr807       O831   2.439       .  S
Zr807       O833   2.449       .  S
Zr807       O811   2.408       .  S
Zr807       O814   2.396       .  S
Zr808       O834   2.439       .  S
Zr808       O835   2.441       .  S
Zr808       O810   2.441       .  S
Zr808       O811   2.393       .  S
Zr808       O812   2.383       .  S
O809        H846   0.990       .  S
O810        H841   0.990       .  S
O810        H855   0.990       .  S
O812        H838   0.964       .  S
O813       Zr823   2.382       .  S
O814       Zr823   2.375       .  S
O814        H839   0.966       .  S
C815       C1217   1.462       .  S
C817        C883   1.517       .  S
O818        H854   0.991       .  S
O819        C821   1.273       .  A
O820        C821   1.305       .  A
O822       Zr823   2.435       .  S
O822        H851   0.990       .  S
Zr823       O826   2.434       .  S
Zr823       O827   2.438       .  S
Zr823       O828   2.424       .  S
O824        C829   1.287       .  A
O825       H2274   0.990       .  S
O825       H2289   0.990       .  S
O826        H843   0.989       .  S
O827        H847   0.990       .  S
O827        H856   0.990       .  S
O828        C829   1.284       .  A
O830        H849   0.990       .  S
O830        H853   0.990       .  S
O831        H845   0.990       .  S
O831        H852   0.990       .  S
O832        C836   1.301       .  A
O833        C836   1.288       .  A
O834        H844   0.990       .  S
O835        H848   0.991       .  S
C836        C902   1.517       .  S
H842       O2257   0.990       .  S
H850       O2226   0.990       .  S
H857       O2257   0.991       .  S
H858       O2226   0.990       .  S
Zr859       O860   2.443       .  S
Zr859       O861   2.526       .  S
Zr859       O862   2.533       .  S
Zr859       O865   2.421       .  S
Zr859       O867   2.375       .  S
Zr859       O868   2.411       .  S
Zr859       O869   2.420       .  S
Zr859       O870   2.433       .  S
O860        H916   0.990       .  S
O860        H924   0.991       .  S
O861        C881   1.299       .  A
O862        C883   1.304       .  A
O863       Zr873   2.460       .  S
O863        C882   1.292       .  A
O864       Zr872   2.465       .  S
O864        C883   1.287       .  A
O865        C882   1.278       .  A
O866       Zr874   2.343       .  S
O866        C881   1.266       .  A
O867       Zr872   2.413       .  S
O867       Zr874   2.405       .  S
O868       Zr873   2.398       .  S
O868       Zr874   2.374       .  S
O868        H903   0.965       .  S
O869       Zr872   2.397       .  S
O869       Zr889   2.394       .  S
O869        H906   0.963       .  S
O870       Zr873   2.395       .  S
O870       Zr889   2.390       .  S
Zr871       O896   2.443       .  S
Zr871       O890   2.470       .  S
Zr871       O898   2.483       .  S
Zr871       O886   2.447       .  S
Zr871       O877   2.394       .  S
Zr871       O878   2.427       .  S
Zr871       O879   2.391       .  S
Zr871       O880   2.389       .  S
Zr872       O891   2.439       .  S
Zr872       O884   2.434       .  S
Zr872       O885   2.437       .  S
Zr872       O878   2.412       .  S
Zr872       O879   2.391       .  S
Zr873       O875   2.438       .  S
Zr873       O897   2.439       .  S
Zr873       O899   2.506       .  S
Zr873       O877   2.369       .  S
Zr873       O880   2.408       .  S
Zr874       O900   2.438       .  S
Zr874       O901   2.437       .  S
Zr874       O876   2.437       .  S
Zr874       O877   2.374       .  S
Zr874       O878   2.345       .  S
O875        H912   0.990       .  S
O876        H907   0.990       .  S
O876        H921   0.990       .  S
O878        H904   0.963       .  S
O879       Zr889   2.370       .  S
O880       Zr889   2.394       .  S
O880        H905   0.966       .  S
O884        H920   0.990       .  S
O885        C887   1.290       .  A
O886        C887   1.286       .  A
C887       C1278   1.456       .  S
O888       Zr889   2.438       .  S
O888        H917   0.990       .  S
Zr889       O892   2.437       .  S
Zr889       O893   2.440       .  S
Zr889       O894   2.432       .  S
O890        C895   1.287       .  A
O891        H908   0.990       .  S
O891        H923   0.990       .  S
O892        H909   0.990       .  S
O893        H913   0.989       .  S
O893        H922   0.990       .  S
O894        C895   1.279       .  A
O896        H915   0.990       .  S
O896        H919   0.990       .  S
O897        H911   0.990       .  S
O897        H918   0.990       .  S
O898        C902   1.294       .  A
O899        C902   1.297       .  A
O900        H910   0.990       .  S
O901        H914   0.990       .  S
Zr925       O926   2.445       .  S
Zr925       O927   2.494   1_455  S
Zr925       O928   2.482       .  S
Zr925       O931   2.457       .  S
Zr925       O933   2.401       .  S
Zr925       O935   2.436       .  S
Zr925       O936   2.417       .  S
Zr925      O2366   2.418   1_554  S
O926        H982   0.991       .  S
O926        H990   0.990       .  S
O927        C947   1.282       .  A
O928        C949   1.293       .  A
O929       Zr939   2.450       .  S
O929       C2380   1.293       .  A
O930       Zr938   2.478       .  S
O930        C949   1.293       .  A
O931        C948   1.285       .  A
O932      Zr2372   2.376   1_554  S
O932        C947   1.263       .  A
O933       Zr938   2.422       .  S
O933      Zr2372   2.407   1_454  S
O934       Zr939   2.393       .  S
O934       Zr940   2.380   1_455  S
O934      Zr2357   2.409       .  S
O934        H969   0.964       .  S
O935       Zr938   2.406       .  S
O935       Zr955   2.399       .  S
O935        H972   0.963       .  S
O936       Zr955   2.391       .  S
O936      Zr2371   2.384   1_554  S
Zr937       O962   2.445       .  S
Zr937       O956   2.476       .  S
Zr937       O964   2.465       .  S
Zr937       O952   2.412       .  S
Zr937       O943   2.389       .  S
Zr937       O944   2.435       .  S
Zr937       O946   2.391       .  S
Zr937      O2377   2.384       .  S
Zr938       O957   2.436       .  S
Zr938       O950   2.431       .  S
Zr938       O951   2.493       .  S
Zr938       O945   2.369   1_554  S
Zr938      O2376   2.394   1_554  S
Zr939       O941   2.437       .  S
Zr939       O963   2.439       .  S
Zr939       O965   2.464       .  S
Zr939       O943   2.377       .  S
Zr939       O946   2.407       .  S
Zr939      O2368   2.389       .  S
Zr940       O966   2.433       .  S
Zr940       O967   2.436       .  S
Zr940      O2374   2.443       .  S
Zr940      O2364   2.382       .  S
Zr940       O943   2.372   1_655  S
Zr940       O944   2.365   1_655  S
Zr940      O2365   2.407   1_655  S
O941        H978   0.990       .  S
O942      Zr2372   2.443       .  S
O942        H973   0.990       .  S
O942        H987   0.990       .  S
O944      Zr2370   2.409       .  S
O944        H970   0.961       .  S
O945       Zr955   2.373   1_556  S
O945      Zr2369   2.372       .  S
O946      Zr2387   2.391       .  S
O946        H971   0.966       .  S
C948       O2361   1.293   1_554  A
C949       C1034   1.506       .  S
O950        H986   0.990       .  S
O951        C953   1.300   1_554  A
O952       C2385   1.279       .  A
C953       O2384   1.278       .  A
C953       C2643   1.465       .  S
O954       Zr955   2.439       .  S
O954        H983   0.990       .  S
Zr955       O958   2.438       .  S
Zr955      O2391   2.436   1_554  S
Zr955      O2392   2.437   1_554  S
Zr955      O2378   2.393   1_554  S
O956        C961   1.290       .  A
O957        H974   0.991       .  S
O957        H989   0.990       .  S
O958        H975   0.990       .  S
O959      Zr2387   2.436       .  S
O959        H979   0.989       .  S
O959        H988   0.990       .  S
O960      Zr2387   2.428       .  S
O960        C961   1.280       .  A
C961       C1093   1.481       .  S
O962        H981   0.990       .  S
O962        H985   0.991       .  S
O963        H977   0.990       .  S
O963        H984   0.990       .  S
O964        C968   1.289       .  A
O965        C968   1.291       .  A
O966        H976   0.990       .  S
O967        H980   0.991       .  S
C968       C1015   1.494       .  S
Zr991       O992   2.446       .  S
Zr991       O993   2.498   1_455  S
Zr991       O994   2.478       .  S
Zr991       O997   2.442       .  S
Zr991       O999   2.393       .  S
Zr991      O1000   2.406       .  S
Zr991      O1001   2.432       .  S
Zr991      O1002   2.417       .  S
O992       H1048   0.990       .  S
O992       H1056   0.991       .  S
O993       C1013   1.290       .  A
O994       C1015   1.290       .  A
O995      Zr1005   2.452       .  S
O995       C1014   1.293       .  A
O996      Zr1004   2.459       .  S
O996       C1015   1.290       .  A
O997       C1014   1.280       .  A
O998      Zr1006   2.367       .  S
O998       C1013   1.265       .  A
O999      Zr1004   2.404       .  S
O999      Zr1006   2.399   1_455  S
O1000     Zr1005   2.388       .  S
O1000     Zr1006   2.391   1_455  S
O1000      H1035   0.963       .  S
O1001     Zr1004   2.403       .  S
O1001     Zr1021   2.393       .  S
O1001      H1038   0.963       .  S
O1002     Zr1005   2.379       .  S
O1002     Zr1021   2.395       .  S
Zr1003     O1028   2.443       .  S
Zr1003     O1022   2.451       .  S
Zr1003     O1030   2.496       .  S
Zr1003     O1018   2.427       .  S
Zr1003     O1009   2.381       .  S
Zr1003     O1010   2.421       .  S
Zr1003     O1011   2.392       .  S
Zr1003     O1012   2.387       .  S
Zr1004     O1023   2.439       .  S
Zr1004     O1016   2.437       .  S
Zr1004     O1017   2.453       .  S
Zr1004     O1010   2.409       .  S
Zr1004     O1011   2.396       .  S
Zr1005     O1007   2.435       .  S
Zr1005     O1029   2.440       .  S
Zr1005     O1031   2.462       .  S
Zr1005     O1009   2.380       .  S
Zr1005     O1012   2.406       .  S
Zr1006     O1032   2.435       .  S
Zr1006     O1033   2.441       .  S
Zr1006     O1008   2.441       .  S
Zr1006     O1009   2.373   1_655  S
Zr1006     O1010   2.357   1_655  S
O1007      H1044   0.990       .  S
O1008      H1039   0.990       .  S
O1008      H1053   0.990       .  S
O1010      H1036   0.961       .  S
O1011     Zr1021   2.371       .  S
O1012     Zr1021   2.388       .  S
O1012      H1037   0.966       .  S
O1016      H1052   0.990   1_455  S
O1017      C1019   1.290       .  A
O1018      C1019   1.284       .  A
C1019      C1291   1.464       .  S
O1020     Zr1021   2.437       .  S
O1020      H1049   0.991       .  S
Zr1021     O1024   2.435       .  S
Zr1021     O1025   2.437       .  S
Zr1021     O1026   2.442       .  S
O1022      C1027   1.284       .  A
O1023      H1040   0.990       .  S
O1023      H1055   0.990       .  S
O1024      H1041   0.990       .  S
O1025      H1045   0.990       .  S
O1025      H1054   0.990       .  S
O1026      C1027   1.283       .  A
C1027      C1159   1.478       .  S
O1028      H1047   0.991       .  S
O1028      H1051   0.990       .  S
O1029      H1043   0.990       .  S
O1029      H1050   0.990       .  S
O1030      C1034   1.296       .  A
O1031      C1034   1.291       .  A
O1032      H1042   0.991       .  S
O1033      H1046   0.990       .  S
Zr1057     O1058   2.444       .  S
Zr1057     O1059   2.505       .  S
Zr1057     O1060   2.490       .  S
Zr1057     O1063   2.443       .  S
Zr1057     O1065   2.386       .  S
Zr1057     O1066   2.401       .  S
Zr1057     O1067   2.432       .  S
Zr1057     O1068   2.425       .  S
O1058      H1114   0.991       .  S
O1058      H1122   0.991       .  S
O1059      C1079   1.293       .  A
O1060      C1081   1.294       .  A
O1061     Zr1071   2.471       .  S
O1061      C1080   1.294       .  A
O1062     Zr1070   2.474       .  S
O1062      C1081   1.292       .  A
O1063      C1080   1.283       .  A
O1064     Zr1072   2.358       .  S
O1064      C1079   1.271       .  A
O1065     Zr1070   2.407       .  S
O1065     Zr1072   2.394       .  S
O1066     Zr1071   2.401       .  S
O1066     Zr1072   2.383       .  S
O1066      H1101   0.965       .  S
O1067     Zr1070   2.402       .  S
O1067     Zr1087   2.397       .  S
O1067      H1104   0.963       .  S
O1068     Zr1071   2.389       .  S
O1068     Zr1087   2.398       .  S
Zr1069     O2526   2.442       .  S
Zr1069     O1088   2.475       .  S
Zr1069     O1084   2.398       .  S
Zr1069     O2528   2.464       .  S
Zr1069     O1075   2.381       .  S
Zr1069     O1076   2.432       .  S
Zr1069     O1077   2.381       .  S
Zr1069     O1078   2.382       .  S
Zr1070     O1089   2.438       .  S
Zr1070     O1082   2.435       .  S
Zr1070     O1083   2.460       .  S
Zr1070     O1076   2.406       .  S
Zr1070     O1077   2.389       .  S
Zr1071     O1073   2.436       .  S
Zr1071     O2527   2.437       .  S
Zr1071     O2529   2.503       .  S
Zr1071     O1075   2.361       .  S
Zr1071     O1078   2.409       .  S
Zr1072     O1098   2.436       .  S
Zr1072     O1099   2.440       .  S
Zr1072     O1074   2.440       .  S
Zr1072     O1075   2.365       .  S
Zr1072     O1076   2.357       .  S
O1073      H2542   0.990       .  S
O1074      H1105   0.991       .  S
O1074      H1119   0.990       .  S
O1076      H1102   0.963       .  S
O1077     Zr1087   2.370       .  S
O1078     Zr1087   2.393       .  S
O1078      H1103   0.966       .  S
C1081      C1166   1.506       .  S
O1082      H1118   0.990       .  S
O1083      C1085   1.295       .  A
O1084      C1085   1.276       .  A
C1085      C1212   1.448       .  S
O1086     Zr1087   2.441       .  S
O1086      H1115   0.990       .  S
Zr1087     O1090   2.439       .  S
Zr1087     O1091   2.445       .  S
Zr1087     O1092   2.435       .  S
O1088      C1093   1.289       .  A
O1089      H1106   0.990       .  S
O1089      H1121   0.990       .  S
O1090      H1107   0.990       .  S
O1091      H1111   0.989       .  S
O1091      H1120   0.990       .  S
O1092      C1093   1.281       .  A
O1094     Zr2501   2.441   1_554  S
O1094      H1113   0.990       .  S
O1094      H2549   0.991       .  S
O1095     Zr2503   2.438   1_554  S
O1095      H1109   0.990       .  S
O1095      H2548   0.990       .  S
O1096     Zr2501   2.450   1_554  S
O1096      C1100   1.289       .  A
O1097     Zr2503   2.514   1_554  S
O1097      C1100   1.302       .  A
O1098      H1108   0.990       .  S
O1099      H1112   0.990       .  S
C1100      C1147   1.503       .  S
H1110      O2505   0.990       .  S
H1116      O2527   0.990       .  S
H1117      O2526   0.991       .  S
Zr1123     O1124   2.446       .  S
Zr1123     O1125   2.494       .  S
Zr1123     O1126   2.481       .  S
Zr1123     O1129   2.436       .  S
Zr1123     O1131   2.386       .  S
Zr1123     O1132   2.400       .  S
Zr1123     O1133   2.426       .  S
Zr1123     O1134   2.429       .  S
O1124      H1180   0.991       .  S
O1124      H1188   0.990       .  S
O1125      C1145   1.291       .  A
O1126      C1147   1.290       .  A
O1127     Zr1137   2.453       .  S
O1127      C1146   1.294       .  A
O1128     Zr1136   2.476       .  S
O1128      C1147   1.295       .  A
O1129      C1146   1.279       .  A
O1130     Zr1138   2.346       .  S
O1130      C1145   1.269       .  A
O1131     Zr1136   2.400       .  S
O1131     Zr1138   2.398       .  S
O1132     Zr1137   2.375       .  S
O1132     Zr1138   2.380       .  S
O1132      H1167   0.964       .  S
O1133     Zr1136   2.390       .  S
O1133     Zr1153   2.387       .  S
O1133      H1170   0.963       .  S
O1134     Zr1137   2.384       .  S
O1134     Zr1153   2.389       .  S
Zr1135     O1160   2.443       .  S
Zr1135     O1154   2.469       .  S
Zr1135     O1162   2.500       .  S
Zr1135     O1150   2.446       .  S
Zr1135     O1141   2.395       .  S
Zr1135     O1142   2.425       .  S
Zr1135     O1143   2.400       .  S
Zr1135     O1144   2.395       .  S
Zr1136     O1155   2.438       .  S
Zr1136     O1148   2.435       .  S
Zr1136     O1149   2.456       .  S
Zr1136     O1142   2.405       .  S
Zr1136     O1143   2.409       .  S
Zr1137     O1139   2.435       .  S
Zr1137     O1161   2.443       .  S
Zr1137     O1163   2.453       .  S
Zr1137     O1141   2.391       .  S
Zr1137     O1144   2.402       .  S
Zr1138     O1164   2.435       .  S
Zr1138     O1165   2.438       .  S
Zr1138     O1140   2.439       .  S
Zr1138     O1141   2.376       .  S
Zr1138     O1142   2.350       .  S
O1139      H1176   0.990       .  S
O1140      H1171   0.990       .  S
O1140      H1185   0.990       .  S
O1142      H1168   0.962       .  S
O1143     Zr1153   2.380       .  S
O1144     Zr1153   2.383       .  S
O1144      H1169   0.967       .  S
O1148      H1184   0.990       .  S
O1149      C1151   1.289       .  A
O1150      C1151   1.287       .  A
C1151      C1283   1.464       .  S
O1152     Zr1153   2.440       .  S
O1152      H1181   0.989       .  S
Zr1153     O1156   2.440       .  S
Zr1153     O1157   2.441       .  S
Zr1153     O1158   2.424       .  S
O1154      C1159   1.288       .  A
O1155      H1172   0.990       .  S
O1155      H1187   0.990       .  S
O1156      H1173   0.989       .  S
O1157      H1177   0.990       .  S
O1157      H1186   0.990       .  S
O1158      C1159   1.279       .  A
O1160      H1179   0.990       .  S
O1160      H1183   0.991       .  S
O1161      H1175   0.990       .  S
O1161      H1182   0.990       .  S
O1162      C1166   1.296       .  A
O1163      C1166   1.289       .  A
O1164      H1174   0.990       .  S
O1165      H1178   0.990       .  S
Zr1189     O2622   2.434       .  S
Zr1189     O1195   2.464       .  S
Zr1189     O2623   2.363       .  S
Zr1189     O2624   2.464   1_455  S
Zr1189     O1197   2.339   1_455  S
Zr1189     O1198   2.386       .  S
Zr1189     O1200   2.375       .  S
Zr1189     O2631   2.406   1_455  S
O1190     Zr2621   2.435       .  S
O1190      H1246   0.990       .  S
O1190      H1254   0.990       .  S
O1191     Zr2621   2.351       .  S
O1191      C2643   1.266   1_554  A
O1192     Zr2621   2.455   1_655  S
O1192      C1213   1.286       .  A
O1193     Zr1203   2.362       .  S
O1193      C1212   1.272       .  A
O1194     Zr1202   2.374       .  S
O1194      C1213   1.270       .  A
O1195      C1212   1.291       .  A
O1196     Zr1204   2.486   1_455  S
O1196      C1211   1.295       .  A
O1197     Zr1204   2.342       .  S
O1197     Zr2634   2.352       .  S
O1198     Zr1203   2.398       .  S
O1198     Zr1204   2.342   1_455  S
O1198      H1233   0.964       .  S
O1199     Zr1202   2.406       .  S
O1199     Zr2621   2.413   1_655  S
O1199     Zr2651   2.419   1_655  S
O1199      H1236   0.966       .  S
O1200     Zr1203   2.410       .  S
O1200     Zr1219   2.427       .  S
Zr1201     O1226   2.434       .  S
Zr1201     O1220   2.373       .  S
Zr1201     O1228   2.483   1_655  S
Zr1201     O1216   2.449       .  S
Zr1201     O1207   2.413   1_655  S
Zr1201     O1208   2.432       .  S
Zr1201     O1209   2.400       .  S
Zr1201     O1210   2.379   1_655  S
Zr1202     O1221   2.435       .  S
Zr1202     O1214   2.435   1_554  S
Zr1202     O2647   2.405   1_554  S
Zr1202     O2629   2.349   1_554  S
Zr1202     O2640   2.386   1_554  S
Zr1202     O2641   2.348   1_554  S
Zr1203     O1205   2.436       .  S
Zr1203     O1227   2.438       .  S
Zr1203     O1229   2.384       .  S
Zr1203     O1207   2.397       .  S
Zr1203     O1210   2.367       .  S
Zr1204     O1230   2.436   1_655  S
Zr1204     O1231   2.435       .  S
Zr1204     O1206   2.434       .  S
Zr1204     O1207   2.405   1_655  S
Zr1204     O1208   2.413       .  S
O1205      H1242   0.990       .  S
O1206      H1237   0.988       .  S
O1206      H1251   0.990       .  S
O1208     Zr2634   2.394       .  S
O1208      H1234   0.966       .  S
O1209     Zr1219   2.384   1_655  S
O1209     Zr2634   2.344       .  S
O1210     Zr1219   2.352       .  S
O1210      H1235   0.963       .  S
C1211      O2623   1.270       .  A
C1211      C2385   1.463       .  S
C1213      C1349   1.467       .  S
O1214      H1250   0.990       .  S
O1215     Zr2634   2.417       .  S
O1215      C1217   1.279       .  A
O1216      C1217   1.289       .  A
O1218     Zr2651   2.435       .  S
O1218      H1247   0.989       .  S
Zr1219     O1223   2.444       .  S
Zr1219     O2650   2.437       .  S
Zr1219     O2654   2.433   1_455  S
Zr1219     O1224   2.445   1_455  S
Zr1219     O2631   2.416   1_455  S
O1220      C1225   1.274       .  A
O1221      H1238   0.990       .  S
O1221      H1253   0.990       .  S
O1222     Zr2651   2.432   1_655  S
O1222      H1239   0.990       .  S
O1223      H1243   0.990       .  S
O1223      H1252   0.990       .  S
O1224      C1225   1.289       .  A
O1226      H1245   0.990       .  S
O1226      H1249   0.990       .  S
O1227      H1241   0.990       .  S
O1227      H1248   0.990       .  S
O1228      C1232   1.295       .  A
O1229      C1232   1.276       .  A
O1230      H1240   0.990       .  S
O1231      H1244   0.990       .  S
C1232      C1334   1.473       .  S
Zr1255     O1256   2.435       .  S
Zr1255     O1257   2.372       .  S
Zr1255     O1258   2.393       .  S
Zr1255     O1261   2.441       .  S
Zr1255     O1263   2.342       .  S
Zr1255     O1264   2.374       .  S
Zr1255     O1265   2.409   1_655  S
Zr1255     O1266   2.363       .  S
O1256      H1312   0.990       .  S
O1256      H1320   0.990       .  S
O1257      C1277   1.272       .  A
O1258      C1279   1.274   1_655  A
O1259     Zr1269   2.414       .  S
O1259      C1278   1.283       .  A
O1260     Zr1268   2.420       .  S
O1260      C1279   1.281       .  A
O1261      C1278   1.284       .  A
O1262     Zr1270   2.491       .  S
O1262      C1277   1.292       .  A
O1263     Zr1268   2.364   1_655  S
O1263     Zr1270   2.340       .  S
O1264     Zr1269   2.410       .  S
O1264     Zr1270   2.341       .  S
O1264      H1299   0.963       .  S
O1265     Zr1268   2.415       .  S
O1265     Zr1285   2.410   1_455  S
O1265      H1302   0.966       .  S
O1266     Zr1269   2.411       .  S
O1266     Zr1285   2.425       .  S
Zr1267     O1292   2.439       .  S
Zr1267     O1286   2.429       .  S
Zr1267     O1294   2.436   1_455  S
Zr1267     O1282   2.410       .  S
Zr1267     O1273   2.417   1_455  S
Zr1267     O1274   2.431       .  S
Zr1267     O1275   2.392       .  S
Zr1267     O1276   2.371   1_455  S
Zr1268     O1287   2.437       .  S
Zr1268     O1280   2.436       .  S
Zr1268     O1281   2.454       .  S
Zr1268     O1274   2.385       .  S
Zr1268     O1275   2.343       .  S
Zr1269     O1271   2.435       .  S
Zr1269     O1293   2.438       .  S
Zr1269     O1295   2.425       .  S
Zr1269     O1273   2.411       .  S
Zr1269     O1276   2.382       .  S
Zr1270     O1296   2.434       .  S
Zr1270     O1297   2.435   1_655  S
Zr1270     O1272   2.438   1_655  S
Zr1270     O1273   2.413       .  S
Zr1270     O1274   2.410   1_655  S
O1271      H1308   0.990       .  S
O1272      H1303   0.990       .  S
O1272      H1317   0.989       .  S
O1274      H1300   0.966       .  S
O1275     Zr1285   2.391   1_455  S
O1276     Zr1285   2.366       .  S
O1276      H1301   0.964       .  S
C1279      C1321   1.471       .  S
O1280      H1316   0.990       .  S
O1281      C1283   1.289       .  A
O1282      C1283   1.279       .  A
O1284     Zr1285   2.436   1_455  S
O1284      H1313   0.990       .  S
Zr1285     O1288   2.441       .  S
Zr1285     O1289   2.442       .  S
Zr1285     O1290   2.420   1_655  S
O1286      C1291   1.286       .  A
O1287      H1304   0.990       .  S
O1287      H1319   0.990       .  S
O1288      H1305   0.989       .  S
O1289      H1309   0.990       .  S
O1289      H1318   0.989       .  S
O1290      C1291   1.282       .  A
O1292      H1311   0.990       .  S
O1292      H1315   0.990       .  S
O1293      H1307   0.990       .  S
O1293      H1314   0.990       .  S
O1294      C1298   1.288       .  A
O1295      C1298   1.282       .  A
O1296      H1306   0.990       .  S
O1297      H1310   0.990       .  S
C1298      C1362   1.485       .  S
C1321      C1322   1.418       .  A
C1321      C1326   1.407       .  A
C1322      C1323   1.387       .  A
C1322      N1327   1.434   1_455  S
C1323      C1324   1.409       .  A
C1323      H1328   1.083       .  S
C1324      C1329   1.495       .  S
C1324      C1325   1.408       .  A
C1325      C1326   1.407       .  A
C1325      N1330   1.435       .  S
C1326      H1331   1.084       .  S
N1327      H1347   1.045       .  S
N1327      H1348   1.045       .  S
C1329      C1332   1.407       .  A
C1329      C1336   1.416       .  A
N1330      H1345   1.046       .  S
N1330      H1346   1.046       .  S
C1332      C1333   1.407       .  A
C1332      H1337   1.080       .  S
C1333      C1334   1.417       .  A
C1333      N1338   1.430       .  S
C1334      C1335   1.404       .  A
C1335      C1336   1.395       .  A
C1335      H1339   1.084       .  S
C1336      N1340   1.434       .  S
N1338      H1341   1.045       .  S
N1338      H1342   1.043   1_455  S
N1340      H1343   1.046       .  S
N1340      H1344   1.043       .  S
C1349      C1350   1.404       .  A
C1349      C1354   1.399       .  A
C1350      C1351   1.391       .  A
C1350      N1355   1.434       .  S
C1351      C1352   1.413       .  A
C1351      H1356   1.082       .  S
C1352      C1357   1.506       .  S
C1352      C1353   1.412       .  A
C1353      C1354   1.409       .  A
C1353      N1358   1.432       .  S
C1354      H1359   1.081       .  S
N1355      H1375   1.046       .  S
N1355      H1376   1.045       .  S
C1357      C1360   1.405       .  A
C1357      C1364   1.407       .  A
N1358      H1373   1.044       .  S
N1358      H1374   1.045       .  S
C1360      C1361   1.408       .  A
C1360      H1365   1.083       .  S
C1361      C1362   1.429       .  A
C1361      N1366   1.431       .  S
C1362      C1363   1.408       .  A
C1363      C1364   1.401       .  A
C1363      H1367   1.083   1_655  S
C1364      N1368   1.431       .  S
N1366      H1369   1.045       .  S
N1366      H1370   1.045       .  S
N1368      H1371   1.045   1_655  S
N1368      H1372   1.045       .  S
C1377      C1378   1.402       .  A
C1377      C1382   1.412       .  A
C1378      C1379   1.402       .  A
C1378      N1383   1.431       .  S
C1379      C1380   1.418       .  A
C1379      H1384   1.080       .  S
C1380      C1385   1.502       .  S
C1380      C1381   1.404       .  A
C1381      C1382   1.402       .  A
C1381      N1386   1.432       .  S
C1382      H1387   1.073       .  S
N1383      H1403   1.045       .  S
N1383      H1404   1.043       .  S
C1385      C1388   1.410       .  A
C1385      C1392   1.399       .  A
N1386      H1401   1.046       .  S
N1386      H1402   1.045       .  S
C1388      C1389   1.415       .  A
C1388      H1393   1.080       .  S
C1389      C1390   1.414       .  A
C1389      N1394   1.431   1_565  S
C1390      C1391   1.409       .  A
C1391      C1392   1.405       .  A
C1391      H1395   1.076       .  S
C1392      N1396   1.430       .  S
N1394      H1397   1.046       .  S
N1394      H1398   1.046   1_545  S
N1396      H1399   1.045       .  S
N1396      H1400   1.045       .  S
C1405      C1406   1.401       .  A
C1405      C1410   1.412       .  A
C1406      C1407   1.381   1_545  A
C1406      N1411   1.434       .  S
C1407      C1408   1.415       .  A
C1407      H1412   1.073       .  S
C1408      C1413   1.510       .  S
C1408      C1409   1.407       .  A
C1409      C1410   1.409   1_565  A
C1409      N1414   1.430       .  S
C1410      H1415   1.069       .  S
N1411      H1431   1.045       .  S
N1411      H1432   1.046   1_545  S
C1413      C1416   1.414       .  A
C1413      C1420   1.411       .  A
N1414      H1429   1.046   1_565  S
N1414      H1430   1.046   1_565  S
C1416      C1417   1.406       .  A
C1416      H1421   1.079       .  S
C1417      C1418   1.414       .  A
C1417      N1422   1.429       .  S
C1418      C1419   1.415       .  A
C1419      C1420   1.412       .  A
C1419      H1423   1.083       .  S
C1420      N1424   1.434       .  S
N1422      H1425   1.040       .  S
N1422      H1426   1.044       .  S
N1424      H1427   1.046       .  S
N1424      H1428   1.045       .  S
Zr1433     O1434   2.442       .  S
Zr1433     O1435   2.454       .  S
Zr1433     O1436   2.519       .  S
Zr1433     O1439   2.471       .  S
Zr1433     O1441   2.384       .  S
Zr1433     O1443   2.403       .  S
Zr1433     O1444   2.414       .  S
O1434      H1490   0.990       .  S
O1434      H1498   0.990       .  S
O1435      C1455   1.286       .  A
O1436      C1457   1.300       .  A
O1437     Zr1447   2.488       .  S
O1437      C1456   1.296       .  A
O1438     Zr1446   2.448       .  S
O1438      C1457   1.286       .  A
O1440      C1455   1.277       .  A
O1441     Zr1446   2.394       .  S
O1442     Zr1447   2.395       .  S
O1442     Zr1448   2.379       .  S
O1442      H1477   0.965       .  S
O1443     Zr1446   2.395       .  S
O1443     Zr1463   2.402       .  S
O1443      H1480   0.965       .  S
O1444     Zr1463   2.390       .  S
Zr1445     O1470   2.441       .  S
Zr1445     O1464   2.473       .  S
Zr1445     O1472   2.483       .  S
Zr1445     O1460   2.519       .  S
Zr1445     O1451   2.427       .  S
Zr1445     O1452   2.418       .  S
Zr1445     O1454   2.406       .  S
Zr1446     O1465   2.439       .  S
Zr1446     O1458   2.438   1_545  S
Zr1446     O1459   2.398       .  S
Zr1446     O1453   2.413       .  S
Zr1447     O1449   2.436       .  S
Zr1447     O1471   2.438       .  S
Zr1447     O1473   2.470       .  S
Zr1447     O1451   2.404       .  S
Zr1447     O1454   2.407       .  S
Zr1448     O1474   2.437       .  S
Zr1448     O1475   2.436   1_545  S
Zr1448     O1451   2.399       .  S
Zr1448     O1452   2.377       .  S
O1449      H1486   0.990       .  S
O1450      H1495   0.990       .  S
O1452      H1478   0.962       .  S
O1453     Zr1463   2.380       .  S
O1454      H1479   0.966       .  S
C1455      C1725   1.458       .  S
C1457      C1523   1.513       .  S
O1458      H1494   0.990       .  S
O1459      C1461   1.279   1_545  A
C1461      C2116   1.489       .  S
O1462     Zr1463   2.437       .  S
O1462      H1491   0.990       .  S
Zr1463     O1466   2.438       .  S
O1464      C1469   1.288       .  A
O1465      H1482   0.991       .  S
O1465      H1497   0.990       .  S
O1466      H1483   0.990       .  S
O1467      H1496   0.990       .  S
O1468      C1469   1.286       .  A
C1469      C2379   1.493       .  S
O1470      H1489   0.990       .  S
O1470      H1493   0.990       .  S
O1471      H1485   0.990       .  S
O1471      H1492   0.990       .  S
O1472      C1476   1.294       .  A
O1473      C1476   1.293       .  A
O1474      H1484   0.990       .  S
O1475      H1488   0.990       .  S
C1476      C1542   1.508       .  S
Zr1499     O1500   2.446       .  S
Zr1499     O1501   2.514       .  S
Zr1499     O1502   2.503       .  S
Zr1499     O1505   2.420       .  S
Zr1499     O1507   2.373       .  S
Zr1499     O1508   2.410       .  S
Zr1499     O1509   2.430       .  S
Zr1499     O1510   2.436       .  S
O1500      H1556   0.991       .  S
O1500      H1564   0.991       .  S
O1501      C1521   1.295   1_545  A
O1502      C1523   1.296       .  A
O1503     Zr1513   2.479       .  S
O1503      C1522   1.296       .  A
O1504     Zr1512   2.481       .  S
O1504      C1523   1.291       .  A
O1505      C1522   1.277       .  A
O1506     Zr1514   2.351   1_565  S
O1506      C1521   1.269       .  A
O1507     Zr1512   2.405       .  S
O1507     Zr1514   2.404       .  S
O1508     Zr1513   2.402       .  S
O1508     Zr1514   2.382       .  S
O1508      H1543   0.966       .  S
O1509     Zr1512   2.393       .  S
O1509     Zr1529   2.399       .  S
O1509      H1546   0.959       .  S
O1510     Zr1513   2.386       .  S
O1510     Zr1529   2.394       .  S
Zr1511     O1536   2.444       .  S
Zr1511     O1530   2.461       .  S
Zr1511     O1538   2.466       .  S
Zr1511     O1526   2.433       .  S
Zr1511     O1517   2.393       .  S
Zr1511     O1518   2.424       .  S
Zr1511     O1519   2.394       .  S
Zr1511     O1520   2.393       .  S
Zr1512     O1531   2.437       .  S
Zr1512     O1524   2.435       .  S
Zr1512     O1525   2.429       .  S
Zr1512     O1518   2.408       .  S
Zr1512     O1519   2.397       .  S
Zr1513     O1515   2.435       .  S
Zr1513     O1537   2.439       .  S
Zr1513     O1539   2.498       .  S
Zr1513     O1517   2.387       .  S
Zr1513     O1520   2.407       .  S
Zr1514     O1540   2.437       .  S
Zr1514     O1541   2.436   1_545  S
Zr1514     O1516   2.439   1_545  S
Zr1514     O1517   2.372       .  S
Zr1514     O1518   2.360       .  S
O1515      H1552   0.990       .  S
O1516      H1547   0.990       .  S
O1516      H1561   0.990       .  S
O1518      H1544   0.961       .  S
O1519     Zr1529   2.370       .  S
O1520     Zr1529   2.388       .  S
O1520      H1545   0.967       .  S
C1521      C2182   1.477       .  S
C1522      C2445   1.469       .  S
O1524      H1560   0.990       .  S
O1525      C1527   1.290       .  A
O1526      C1527   1.280       .  A
C1527      C1791   1.460       .  S
O1528     Zr1529   2.437       .  S
O1528      H1557   0.990       .  S
Zr1529     O1532   2.436       .  S
Zr1529     O1533   2.440       .  S
Zr1529     O1534   2.440       .  S
O1530      C1535   1.287       .  A
O1531      H1548   0.990       .  S
O1531      H1563   0.990       .  S
O1532      H1549   0.990       .  S
O1533      H1553   0.990       .  S
O1533      H1562   0.989       .  S
O1534      C1535   1.282       .  A
C1535      C1667   1.486       .  S
O1536      H1555   0.990       .  S
O1536      H1559   0.991       .  S
O1537      H1551   0.990       .  S
O1537      H1558   0.989       .  S
O1538      C1542   1.288       .  A
O1539      C1542   1.297       .  A
O1540      H1550   0.989       .  S
O1541      H1554   0.990   1_565  S
Zr1565     O1566   2.445       .  S
Zr1565     O1567   2.518       .  S
Zr1565     O1568   2.502       .  S
Zr1565     O1571   2.425       .  S
Zr1565     O1573   2.377       .  S
Zr1565     O1574   2.404       .  S
Zr1565     O1575   2.432       .  S
Zr1565     O1576   2.443       .  S
O1566      H1622   0.991       .  S
O1566      H1630   0.991       .  S
O1567      C1587   1.293       .  A
O1568      C1589   1.295       .  A
O1569     Zr1579   2.481       .  S
O1569      C1588   1.298       .  A
O1570     Zr1578   2.415       .  S
O1570      C1589   1.280       .  A
O1571      C1588   1.279       .  A
O1572     Zr1580   2.366       .  S
O1572      C1587   1.265       .  A
O1573     Zr1578   2.396       .  S
O1573     Zr1580   2.398       .  S
O1574     Zr1579   2.389       .  S
O1574     Zr1580   2.387       .  S
O1574      H1609   0.967       .  S
O1575     Zr1578   2.388       .  S
O1575     Zr1595   2.409       .  S
O1575      H1612   0.964       .  S
O1576     Zr1579   2.384       .  S
O1576     Zr1595   2.426       .  S
Zr1577     O1592   2.452       .  S
Zr1577     O1583   2.394       .  S
Zr1577     O1584   2.412       .  S
Zr1577     O1585   2.386       .  S
Zr1577     O1586   2.392       .  S
Zr1578     O1597   2.444       .  S
Zr1578     O1590   2.434       .  S
Zr1578     O1591   2.382       .  S
Zr1578     O1584   2.413       .  S
Zr1578     O1585   2.392       .  S
Zr1579     O1583   2.394       .  S
Zr1579     O1586   2.406       .  S
Zr1580     O1606   2.428       .  S
Zr1580     O1582   2.440       .  S
Zr1580     O1583   2.375       .  S
Zr1580     O1584   2.346       .  S
O1581      H1618   0.990       .  S
O1582      H1613   0.990       .  S
O1582      H1627   0.990       .  S
O1584      H1610   0.964       .  S
O1585     Zr1595   2.358       .  S
O1586     Zr1595   2.380       .  S
C1587      C2512   1.478       .  S
C1588      C2253   1.490       .  S
C1589      C1674   1.489       .  S
O1590      H1626   0.991       .  S
O1591      C1593   1.275       .  A
O1592      C1593   1.291       .  A
C1593      C1733   1.443       .  S
O1594     Zr1595   2.437       .  S
O1594      H1623   0.990       .  S
Zr1595     O1598   2.438       .  S
Zr1595     O1599   2.445       .  S
Zr1595     O1600   2.473       .  S
O1597      H1614   0.990       .  S
O1597      H1629   0.990       .  S
O1598      H1615   0.990       .  S
O1599      H1619   0.990       .  S
O1599      H1628   0.990       .  S
O1600      C1601   1.290       .  A
O1602      H1621   0.990       .  S
O1602      H1625   0.990       .  S
O1603      H1617   0.990       .  S
O1603      H1624   0.990       .  S
O1604      C1608   1.293       .  A
O1605      C1608   1.291       .  A
O1606      H1616   0.990   1_556  S
C1608      C1655   1.502       .  S
Zr1631     O1632   2.445       .  S
Zr1631     O1633   2.532       .  S
Zr1631     O1634   2.477       .  S
Zr1631     O1637   2.453       .  S
Zr1631     O1639   2.396       .  S
Zr1631     O1640   2.388       .  S
Zr1631     O1641   2.436       .  S
Zr1631     O1642   2.430       .  S
O1632      H1688   0.990       .  S
O1632      H1696   0.990       .  S
O1633      C1653   1.300       .  A
O1634      C1655   1.292       .  A
O1635     Zr1645   2.454       .  S
O1635      C1654   1.291       .  A
O1636     Zr1644   2.480       .  S
O1636      C1655   1.293       .  A
O1637      C1654   1.282       .  A
O1638     Zr1646   2.345       .  S
O1638      C1653   1.267       .  A
O1639     Zr1644   2.415       .  S
O1639     Zr1646   2.400       .  S
O1640     Zr1645   2.378       .  S
O1640     Zr1646   2.381       .  S
O1640      H1675   0.966       .  S
O1641     Zr1644   2.400       .  S
O1641     Zr1661   2.397       .  S
O1641      H1678   0.965       .  S
O1642     Zr1645   2.385       .  S
O1642     Zr1661   2.409       .  S
Zr1643     O1668   2.446       .  S
Zr1643     O1662   2.469       .  S
Zr1643     O1670   2.480       .  S
Zr1643     O1658   2.432       .  S
Zr1643     O1649   2.390       .  S
Zr1643     O1650   2.426       .  S
Zr1643     O1651   2.390       .  S
Zr1643     O1652   2.387       .  S
Zr1644     O1663   2.437       .  S
Zr1644     O1656   2.436       .  S
Zr1644     O1657   2.470       .  S
Zr1644     O1650   2.408       .  S
Zr1644     O1651   2.395       .  S
Zr1645     O1647   2.435       .  S
Zr1645     O1669   2.439       .  S
Zr1645     O1671   2.443       .  S
Zr1645     O1649   2.385       .  S
Zr1645     O1652   2.408       .  S
Zr1646     O1672   2.437       .  S
Zr1646     O1673   2.439       .  S
Zr1646     O1648   2.440       .  S
Zr1646     O1649   2.371       .  S
Zr1646     O1650   2.350       .  S
O1647      H1684   0.989       .  S
O1648      H1679   0.991       .  S
O1648      H1693   0.990       .  S
O1650      H1676   0.966       .  S
O1651     Zr1661   2.372       .  S
O1652     Zr1661   2.384       .  S
O1652      H1677   0.967       .  S
C1653      C2578   1.480       .  S
C1654      C2313   1.482       .  S
O1656      H1692   0.990       .  S
O1657      C1659   1.295       .  A
O1658      C1659   1.282       .  A
C1659      C1799   1.465       .  S
O1660     Zr1661   2.436       .  S
O1660      H1689   0.990       .  S
Zr1661     O1664   2.437       .  S
Zr1661     O1665   2.439       .  S
Zr1661     O1666   2.441       .  S
O1662      C1667   1.287       .  A
O1663      H1680   0.990       .  S
O1663      H1695   0.990       .  S
O1664      H1681   0.989       .  S
O1665      H1685   0.990       .  S
O1665      H1694   0.990       .  S
O1666      C1667   1.282       .  A
O1668      H1687   0.990       .  S
O1668      H1691   0.990       .  S
O1669      H1683   0.990       .  S
O1669      H1690   0.990       .  S
O1670      C1674   1.295       .  A
O1671      C1674   1.285       .  A
O1672      H1682   0.990       .  S
O1673      H1686   0.990       .  S
Zr1697     O1698   2.432       .  S
Zr1697     O1699   2.397       .  S
Zr1697     O1700   2.461       .  S
Zr1697     O1703   2.433       .  S
Zr1697     O1705   2.328       .  S
Zr1697     O1706   2.379       .  S
Zr1697     O1707   2.409   1_565  S
Zr1697     O1708   2.395   1_565  S
O1698      H1754   0.990   1_565  S
O1698      H1762   0.990       .  S
O1699      C1719   1.276       .  A
O1700      C1721   1.285       .  A
O1701      C1720   1.279       .  A
O1702     Zr1710   2.403   1_565  S
O1702      C1721   1.279       .  A
O1703      C1720   1.286       .  A
O1704     Zr1712   2.449       .  S
O1704      C1719   1.283       .  A
O1705     Zr1710   2.356   1_565  S
O1705     Zr1712   2.324       .  S
O1706     Zr1712   2.348       .  S
O1706      H1741   0.963       .  S
O1707     Zr1710   2.410       .  S
O1707     Zr1727   2.438       .  S
O1707      H1744   0.967       .  S
O1708     Zr1727   2.425       .  S
Zr1709     O1734   2.462       .  S
Zr1709     O1728   2.392       .  S
Zr1709     O1736   2.422       .  S
Zr1709     O1715   2.434       .  S
Zr1710     O1729   2.435       .  S
Zr1710     O1722   2.435   1_545  S
Zr1710     O1723   2.452       .  S
Zr1710     O1716   2.390   1_545  S
Zr1710     O1717   2.329       .  S
Zr1711     O1713   2.435       .  S
Zr1711     O1735   2.443       .  S
Zr1711     O1737   2.462       .  S
Zr1711     O1715   2.420       .  S
Zr1712     O1714   2.410       .  S
Zr1712     O1716   2.411       .  S
O1713      H1750   0.991       .  S
O1714      H1745   0.988       .  S
O1714      H1759   0.990       .  S
O1716      H1742   0.960       .  S
O1717     Zr1727   2.389       .  S
O1718     Zr1727   2.394       .  S
C1719      C1857   1.458       .  S
C1720      C1989   1.453       .  S
C1721      C2809   1.481       .  S
O1722      H1758   0.990       .  S
O1723      C1725   1.283       .  A
O1724      C1725   1.279       .  A
O1726     Zr1727   2.439       .  S
O1726      H1755   0.989       .  S
Zr1727     O1730   2.438       .  S
Zr1727     O1731   2.443       .  S
Zr1727     O1732   2.426       .  S
O1729      H1746   0.989       .  S
O1729      H1761   0.983       .  S
O1730      H1747   0.990       .  S
O1731      H1751   0.990       .  S
O1731      H1760   0.990       .  S
O1732      C1733   1.283       .  A
O1734      H1753   0.991       .  S
O1734      H1757   0.990       .  S
O1735      H1749   0.990       .  S
O1735      H1756   0.990       .  S
O1736      C1740   1.267       .  A
O1737      C1740   1.281       .  A
O1738      H1748   0.989       .  S
O1739      H1752   0.989       .  S
C1740      C2837   1.488       .  S
Zr1763     O1764   2.433       .  S
Zr1763     O1765   2.357       .  S
Zr1763     O1766   2.492       .  S
Zr1763     O1769   2.403       .  S
Zr1763     O1772   2.387       .  S
Zr1763     O1773   2.408   1_565  S
Zr1763     O1774   2.394   1_565  S
Zr1763     O1771   2.216       .  S
O1764      H1820   0.990   1_565  S
O1764      H1828   0.990       .  S
O1765      C1785   1.269       .  A
O1766      C1787   1.294       .  A
O1767     Zr1777   2.439   1_565  S
O1767      C1786   1.285       .  A
O1768     Zr1776   2.436   1_565  S
O1768      C1787   1.291       .  A
O1769      C1786   1.281       .  A
O1770     Zr1778   2.460       .  S
O1770      C1785   1.285       .  A
O1771     Zr1776   2.252   1_565  S
O1771     Zr1778   2.202       .  S
O1772     Zr1777   2.395   1_565  S
O1772     Zr1778   2.369       .  S
O1772      H1807   0.968       .  S
O1773     Zr1776   2.440       .  S
O1773     Zr1793   2.421       .  S
O1773      H1810   0.962       .  S
O1774     Zr1777   2.420       .  S
O1774     Zr1793   2.392       .  S
Zr1775     O1800   2.441       .  S
Zr1775     O1794   2.475       .  S
Zr1775     O1802   2.404       .  S
Zr1775     O1790   2.314       .  S
Zr1775     O1781   2.374   1_545  S
Zr1775     O1782   2.449   1_545  S
Zr1775     O1783   2.343       .  S
Zr1775     O1784   2.374       .  S
Zr1776     O1795   2.437       .  S
Zr1776     O1788   2.436       .  S
Zr1776     O1789   2.505       .  S
Zr1776     O1782   2.395   1_545  S
Zr1776     O1783   2.342       .  S
Zr1777     O1779   2.437       .  S
Zr1777     O1801   2.436   1_545  S
Zr1777     O1803   2.571   1_545  S
Zr1777     O1781   2.282   1_545  S
Zr1777     O1784   2.409       .  S
Zr1778     O1804   2.434       .  S
Zr1778     O1805   2.439       .  S
Zr1778     O1780   2.455       .  S
Zr1778     O1781   2.342       .  S
Zr1778     O1782   2.474       .  S
O1779      H1816   0.991       .  S
O1780      H1811   0.990       .  S
O1780      H1825   0.989       .  S
O1782      H1808   0.962       .  S
O1783     Zr1793   2.370       .  S
O1784     Zr1793   2.422       .  S
O1784      H1809   0.968       .  S
C1785      C1923   1.436       .  S
C1786      C2055   1.461       .  S
C1787      C2850   1.496       .  S
O1788      H1824   0.990   1_545  S
O1789      C1791   1.295       .  A
O1790      C1791   1.263       .  A
O1792     Zr1793   2.437       .  S
O1792      H1821   0.989       .  S
Zr1793     O1796   2.437       .  S
Zr1793     O1797   2.441       .  S
Zr1793     O1798   2.420       .  S
O1794      C1799   1.290       .  A
O1795      H1812   0.990       .  S
O1795      H1827   0.990       .  S
O1796      H1813   0.990       .  S
O1797      H1817   0.991       .  S
O1797      H1826   0.990       .  S
O1798      C1799   1.281       .  A
O1800      H1819   0.991       .  S
O1800      H1823   0.990       .  S
O1801      H1815   0.990       .  S
O1801      H1822   0.990       .  S
O1802      C1806   1.270   1_545  A
O1803      C1806   1.314       .  A
O1804      H1814   0.990       .  S
O1805      H1818   0.991       .  S
C1806      C2822   1.485       .  S
Zr1829     O1830   2.440       .  S
Zr1829     O1831   2.477       .  S
Zr1829     O1832   2.485       .  S
Zr1829     O1835   2.474       .  S
Zr1829     O1837   2.394       .  S
Zr1829     O1838   2.416       .  S
Zr1829     O1839   2.427       .  S
Zr1829     O1840   2.411       .  S
O1830      H1886   0.990       .  S
O1830      H1894   0.990       .  S
O1831      C1851   1.279       .  A
O1832      C1853   1.296       .  A
O1833     Zr1843   2.443       .  S
O1833      C1852   1.289       .  A
O1834     Zr1842   2.429       .  S
O1834      C1853   1.284       .  A
O1835      C1852   1.289       .  A
O1836     Zr1844   2.389       .  S
O1836      C1851   1.265       .  A
O1837     Zr1842   2.388       .  S
O1837     Zr1844   2.384       .  S
O1838     Zr1843   2.396       .  S
O1838     Zr1844   2.391       .  S
O1838      H1873   0.965       .  S
O1839     Zr1842   2.404       .  S
O1839     Zr1859   2.391       .  S
O1839      H1876   0.963       .  S
O1840     Zr1843   2.377       .  S
O1840     Zr1859   2.389       .  S
Zr1841     O1866   2.443   1_556  S
Zr1841     O1860   2.499       .  S
Zr1841     O1868   2.493   1_556  S
Zr1841     O1856   2.454       .  S
Zr1841     O1847   2.395       .  S
Zr1841     O1848   2.425       .  S
Zr1841     O1849   2.381       .  S
Zr1841     O1850   2.387       .  S
Zr1842     O1861   2.438       .  S
Zr1842     O1854   2.435       .  S
Zr1842     O1855   2.427       .  S
Zr1842     O1848   2.408       .  S
Zr1842     O1849   2.390       .  S
Zr1843     O1845   2.437   1_556  S
Zr1843     O1867   2.441   1_556  S
Zr1843     O1869   2.442   1_556  S
Zr1843     O1847   2.386       .  S
Zr1843     O1850   2.405       .  S
Zr1844     O1870   2.429       .  S
Zr1844     O1871   2.438       .  S
Zr1844     O1846   2.446       .  S
Zr1844     O1847   2.384       .  S
Zr1844     O1848   2.369       .  S
O1845      H1882   0.989       .  S
O1846      H1877   0.990       .  S
O1846      H1891   0.990       .  S
O1848      H1874   0.962       .  S
O1849     Zr1859   2.374       .  S
O1850     Zr1859   2.392       .  S
O1850      H1875   0.965       .  S
C1851      C2261   1.473       .  S
C1852      C2511   1.482       .  S
C1853      C1938   1.485       .  S
O1854      H1890   0.990       .  S
O1855      C1857   1.284       .  A
O1856      C1857   1.289       .  A
O1858     Zr1859   2.440       .  S
O1858      H1887   0.990       .  S
Zr1859     O1862   2.438       .  S
Zr1859     O1863   2.441       .  S
Zr1859     O1864   2.421       .  S
O1860      C1865   1.296       .  A
O1861      H1878   0.990       .  S
O1861      H1893   0.990       .  S
O1862      H1879   0.990       .  S
O1863      H1883   0.990       .  S
O1863      H1892   0.989       .  S
O1864      C1865   1.280       .  A
C1865      C1997   1.489       .  S
O1866      H1885   0.990       .  S
O1866      H1889   0.990       .  S
O1867      H1881   0.990       .  S
O1867      H1888   0.990   1_554  S
O1870      H1880   0.990   1_556  S
O1871      H1884   0.990   1_556  S
C1872      C1919   1.491       .  S
Zr1895     O1896   2.442       .  S
Zr1895     O1897   2.484       .  S
Zr1895     O1898   2.490       .  S
Zr1895     O1901   2.449       .  S
Zr1895     O1903   2.384       .  S
Zr1895     O1904   2.411       .  S
Zr1895     O1905   2.427       .  S
Zr1895     O1906   2.420       .  S
O1896      H1952   0.990       .  S
O1896      H1960   0.991       .  S
O1897      C1917   1.285       .  A
O1898      C1919   1.295       .  A
O1899     Zr1909   2.438       .  S
O1899      C1918   1.289       .  A
O1900     Zr1908   2.436       .  S
O1900      C1919   1.286       .  A
O1901      C1918   1.284       .  A
O1902     Zr1910   2.370       .  S
O1902      C1917   1.264       .  A
O1903     Zr1908   2.391       .  S
O1903     Zr1910   2.397       .  S
O1904     Zr1909   2.383       .  S
O1904     Zr1910   2.386       .  S
O1904      H1939   0.964       .  S
O1905     Zr1908   2.389       .  S
O1905     Zr1925   2.394       .  S
O1905      H1942   0.964       .  S
O1906     Zr1909   2.374       .  S
O1906     Zr1925   2.395       .  S
Zr1907     O1932   2.444       .  S
Zr1907     O1926   2.463       .  S
Zr1907     O1934   2.496       .  S
Zr1907     O1922   2.440       .  S
Zr1907     O1913   2.384       .  S
Zr1907     O1914   2.413       .  S
Zr1907     O1915   2.379       .  S
Zr1907     O1916   2.392       .  S
Zr1908     O1927   2.439       .  S
Zr1908     O1920   2.431       .  S
Zr1908     O1921   2.409       .  S
Zr1908     O1914   2.404       .  S
Zr1908     O1915   2.386       .  S
Zr1909     O1911   2.437       .  S
Zr1909     O1933   2.441       .  S
Zr1909     O1935   2.418       .  S
Zr1909     O1913   2.386       .  S
Zr1909     O1916   2.406       .  S
Zr1910     O1936   2.429       .  S
Zr1910     O1937   2.436       .  S
Zr1910     O1912   2.439       .  S
Zr1910     O1913   2.370       .  S
Zr1910     O1914   2.349       .  S
O1911      H1948   0.990       .  S
O1912      H1943   0.990       .  S
O1912      H1957   0.990       .  S
O1914      H1940   0.968       .  S
O1915     Zr1925   2.366       .  S
O1916     Zr1925   2.386       .  S
O1916      H1941   0.965       .  S
C1917      C2314   1.465       .  S
C1918      C2577   1.470       .  S
O1920      H1956   0.990       .  S
O1921      C1923   1.280       .  A
O1922      C1923   1.287       .  A
O1924     Zr1925   2.437       .  S
O1924      H1953   0.991       .  S
Zr1925     O1928   2.435       .  S
Zr1925     O1929   2.440       .  S
Zr1925     O1930   2.435       .  S
O1926      C1931   1.289       .  A
O1927      H1944   0.991       .  S
O1927      H1959   0.990       .  S
O1928      H1945   0.990       .  S
O1929      H1949   0.990       .  S
O1929      H1958   0.990       .  S
O1930      C1931   1.282       .  A
C1931      C2063   1.479       .  S
O1932      H1951   0.990       .  S
O1932      H1955   0.991       .  S
O1933      H1947   0.990       .  S
O1933      H1954   0.989       .  S
O1934      C1938   1.296       .  A
O1935      C1938   1.282       .  A
O1936      H1946   0.990       .  S
O1937      H1950   0.991       .  S
Zr1961     O1962   2.444       .  S
Zr1961     O1963   2.523   1_565  S
Zr1961     O1964   2.525       .  S
Zr1961     O1967   2.453       .  S
Zr1961     O1969   2.385       .  S
Zr1961     O1971   2.428       .  S
O1962      H2018   0.991       .  S
O1962      H2026   0.990       .  S
O1963      C1983   1.298       .  A
O1964      C1985   1.304       .  A
O1965     Zr1975   2.456       .  S
O1965      C1984   1.291   1_556  A
O1966     Zr1974   2.463       .  S
O1966      C1985   1.288       .  A
O1968      C1983   1.266       .  A
O1969     Zr1974   2.405       .  S
O1970     Zr1975   2.396       .  S
O1970     Zr1976   2.387   1_565  S
O1970      H2005   0.964       .  S
O1971     Zr1974   2.395       .  S
O1971      H2008   0.962       .  S
O1972     Zr1975   2.390       .  S
O1972     Zr1991   2.403   1_556  S
Zr1973     O1998   2.444       .  S
Zr1973     O1992   2.472       .  S
Zr1973     O2000   2.471       .  S
Zr1973     O1988   2.409       .  S
Zr1973     O1979   2.377       .  S
Zr1973     O1980   2.424       .  S
Zr1973     O1981   2.380       .  S
Zr1973     O1982   2.391       .  S
Zr1974     O1993   2.440       .  S
Zr1974     O1986   2.435   1_565  S
Zr1974     O1987   2.446       .  S
Zr1975     O1977   2.438       .  S
Zr1975     O1999   2.441       .  S
Zr1975     O2001   2.477       .  S
Zr1975     O1979   2.364       .  S
Zr1975     O1982   2.414       .  S
Zr1976     O2002   2.436       .  S
Zr1976     O2003   2.441       .  S
Zr1976     O1978   2.439       .  S
Zr1976     O1979   2.358   1_545  S
Zr1976     O1980   2.347   1_545  S
O1977      H2014   0.990       .  S
O1978      H2009   0.990       .  S
O1980      H2006   0.962       .  S
O1981     Zr1991   2.370   1_556  S
O1982     Zr1991   2.392   1_556  S
O1982      H2007   0.966       .  S
C1983      C2380   1.470       .  S
C1985      C2070   1.512       .  S
O1986      H2022   0.990       .  S
O1988      C1989   1.279       .  A
O1990      H2019   0.991       .  S
Zr1991     O1995   2.444   1_554  S
Zr1991     O1996   2.448   1_554  S
O1992      C1997   1.289       .  A
O1993      H2010   0.990       .  S
O1993      H2025   0.989       .  S
O1994      H2011   0.990       .  S
O1995      H2015   0.989       .  S
O1995      H2024   0.990       .  S
O1996      C1997   1.284       .  A
O1998      H2017   0.991       .  S
O1998      H2021   0.990       .  S
O1999      H2013   0.990       .  S
O1999      H2020   0.990       .  S
O2000      C2004   1.292       .  A
O2001      C2004   1.293       .  A
O2002      H2012   0.990       .  S
O2003      H2016   0.990       .  S
C2004      C2051   1.493       .  S
Zr2027     O2028   2.445       .  S
Zr2027     O2029   2.517   1_565  S
Zr2027     O2030   2.484       .  S
Zr2027     O2033   2.454       .  S
Zr2027     O2035   2.394       .  S
Zr2027     O2036   2.394       .  S
Zr2027     O2037   2.432       .  S
Zr2027     O2038   2.428       .  S
O2028      H2084   0.991       .  S
O2028      H2092   0.990       .  S
O2029      C2049   1.297       .  A
O2030      C2051   1.292       .  A
O2031     Zr2041   2.424       .  S
O2031      C2050   1.287       .  A
O2032     Zr2040   2.459       .  S
O2032      C2051   1.290       .  A
O2033      C2050   1.282       .  A
O2034     Zr2042   2.329       .  S
O2034      C2049   1.266       .  A
O2035     Zr2040   2.397       .  S
O2035     Zr2042   2.397   1_565  S
O2036     Zr2041   2.374       .  S
O2036     Zr2042   2.388   1_565  S
O2036      H2071   0.965       .  S
O2037     Zr2040   2.397       .  S
O2037     Zr2057   2.387       .  S
O2037      H2074   0.963       .  S
O2038     Zr2041   2.386       .  S
O2038     Zr2057   2.398       .  S
Zr2039     O2064   2.441       .  S
Zr2039     O2058   2.472       .  S
Zr2039     O2066   2.533       .  S
Zr2039     O2054   2.440       .  S
Zr2039     O2045   2.378       .  S
Zr2039     O2046   2.427       .  S
Zr2039     O2047   2.392       .  S
Zr2039     O2048   2.386       .  S
Zr2040     O2059   2.437       .  S
Zr2040     O2052   2.437   1_565  S
Zr2040     O2053   2.429       .  S
Zr2040     O2046   2.410       .  S
Zr2040     O2047   2.403       .  S
Zr2041     O2043   2.436       .  S
Zr2041     O2065   2.442       .  S
Zr2041     O2067   2.441       .  S
Zr2041     O2045   2.378       .  S
Zr2041     O2048   2.405       .  S
Zr2042     O2068   2.434       .  S
Zr2042     O2069   2.436       .  S
Zr2042     O2044   2.439       .  S
Zr2042     O2045   2.362   1_545  S
Zr2042     O2046   2.351   1_545  S
O2043      H2080   0.990       .  S
O2044      H2075   0.990       .  S
O2044      H2089   0.990       .  S
O2046      H2072   0.964       .  S
O2047     Zr2057   2.367       .  S
O2048     Zr2057   2.383       .  S
O2048      H2073   0.964       .  S
C2049      C2446   1.463       .  S
C2050      C2181   1.471       .  S
O2052      H2088   0.990       .  S
O2053      C2055   1.285       .  A
O2054      C2055   1.287       .  A
O2056     Zr2057   2.437       .  S
O2056      H2085   0.990       .  S
Zr2057     O2060   2.437       .  S
Zr2057     O2061   2.437       .  S
Zr2057     O2062   2.423       .  S
O2058      C2063   1.290       .  A
O2059      H2076   0.990       .  S
O2059      H2091   0.989       .  S
O2060      H2077   0.989       .  S
O2061      H2081   0.990       .  S
O2061      H2090   0.990       .  S
O2062      C2063   1.279       .  A
O2064      H2083   0.991       .  S
O2064      H2087   0.991       .  S
O2065      H2079   0.989       .  S
O2065      H2086   0.990       .  S
O2066      C2070   1.306       .  A
O2067      C2070   1.286       .  A
O2068      H2078   0.990       .  S
O2069      H2082   0.991       .  S
Zr2093     O2094   2.441       .  S
Zr2093     O2095   2.492   1_655  S
Zr2093     O2096   2.501       .  S
Zr2093     O2099   2.447       .  S
Zr2093     O2101   2.385       .  S
Zr2093     O2103   2.418       .  S
O2094      H2150   0.990       .  S
O2094      H2158   0.991       .  S
O2095      C2115   1.288       .  A
O2096      C2117   1.297       .  A
O2097     Zr2107   2.462       .  S
O2097      C2116   1.292       .  A
O2098     Zr2106   2.415       .  S
O2098      C2117   1.280       .  A
O2100      C2115   1.265       .  A
O2101     Zr2106   2.388       .  S
O2102     Zr2107   2.394       .  S
O2102     Zr2108   2.385   1_655  S
O2102      H2137   0.965       .  S
O2103     Zr2106   2.390       .  S
O2103      H2140   0.964       .  S
O2104     Zr2107   2.397       .  S
O2104     Zr2123   2.418       .  S
Zr2105     O2130   2.440       .  S
Zr2105     O2124   2.465       .  S
Zr2105     O2132   2.479       .  S
Zr2105     O2120   2.460       .  S
Zr2105     O2111   2.390       .  S
Zr2105     O2112   2.416       .  S
Zr2105     O2113   2.380       .  S
Zr2105     O2114   2.399       .  S
Zr2106     O2125   2.439       .  S
Zr2106     O2118   2.435       .  S
Zr2106     O2119   2.377       .  S
Zr2107     O2109   2.436       .  S
Zr2107     O2131   2.439       .  S
Zr2107     O2133   2.468       .  S
Zr2107     O2111   2.377       .  S
Zr2107     O2114   2.408       .  S
Zr2108     O2134   2.436       .  S
Zr2108     O2135   2.430       .  S
Zr2108     O2110   2.436       .  S
Zr2108     O2111   2.367   1_455  S
Zr2108     O2112   2.378   1_455  S
O2109      H2146   0.989       .  S
O2110      H2141   0.990       .  S
O2112      H2138   0.962       .  S
O2113     Zr2123   2.370       .  S
O2114     Zr2123   2.384       .  S
O2114      H2139   0.967       .  S
C2117      C2202   1.488       .  S
O2118      H2154   0.990       .  S
O2120      C2121   1.291       .  A
C2121      C2657   1.463       .  S
O2122      H2151   0.990       .  S
Zr2123     O2127   2.439       .  S
Zr2123     O2128   2.449       .  S
O2124      C2129   1.288       .  A
O2125      H2142   0.990       .  S
O2125      H2157   0.990       .  S
O2126      H2143   0.990       .  S
O2127      H2147   0.990       .  S
O2127      H2156   0.990       .  S
O2128      C2129   1.285       .  A
C2129      C2248   1.490       .  S
O2130      H2149   0.990       .  S
O2130      H2153   0.990       .  S
O2131      H2145   0.990       .  S
O2131      H2152   0.990       .  S
O2132      C2136   1.293       .  A
O2133      C2136   1.292       .  A
O2134      H2144   0.990       .  S
O2135      H2148   0.990       .  S
C2136      C2183   1.502       .  S
Zr2159     O2160   2.442       .  S
Zr2159     O2161   2.502   1_655  S
Zr2159     O2162   2.481       .  S
Zr2159     O2165   2.453       .  S
Zr2159     O2167   2.387       .  S
Zr2159     O2168   2.398       .  S
Zr2159     O2169   2.427       .  S
Zr2159     O2170   2.421       .  S
O2160      H2216   0.990       .  S
O2160      H2224   0.991       .  S
O2161      C2181   1.293       .  A
O2162      C2183   1.292       .  A
O2163     Zr2173   2.434       .  S
O2163      C2182   1.287       .  A
O2164     Zr2172   2.478       .  S
O2164      C2183   1.293       .  A
O2165      C2182   1.283       .  A
O2166     Zr2174   2.345   1_455  S
O2166      C2181   1.268       .  A
O2167     Zr2172   2.402       .  S
O2167     Zr2174   2.391       .  S
O2168     Zr2173   2.387       .  S
O2168     Zr2174   2.383       .  S
O2168      H2203   0.966       .  S
O2169     Zr2172   2.392       .  S
O2169     Zr2189   2.381       .  S
O2169      H2206   0.963       .  S
O2170     Zr2173   2.378       .  S
O2170     Zr2189   2.396       .  S
Zr2171     O2196   2.444       .  S
Zr2171     O2190   2.474       .  S
Zr2171     O2198   2.499       .  S
Zr2171     O2186   2.447       .  S
Zr2171     O2177   2.383       .  S
Zr2171     O2178   2.426       .  S
Zr2171     O2179   2.392       .  S
Zr2171     O2180   2.395       .  S
Zr2172     O2191   2.441       .  S
Zr2172     O2184   2.417   1_655  S
Zr2172     O2185   2.461       .  S
Zr2172     O2178   2.406       .  S
Zr2172     O2179   2.391       .  S
Zr2173     O2175   2.436       .  S
Zr2173     O2197   2.439       .  S
Zr2173     O2199   2.428       .  S
Zr2173     O2177   2.382       .  S
Zr2173     O2180   2.407       .  S
Zr2174     O2200   2.437   1_655  S
Zr2174     O2201   2.436   1_655  S
Zr2174     O2176   2.440   1_655  S
Zr2174     O2177   2.366       .  S
Zr2174     O2178   2.363       .  S
O2175      H2212   0.990       .  S
O2176      H2207   0.990       .  S
O2176      H2221   0.990       .  S
O2178      H2204   0.963       .  S
O2179     Zr2189   2.372       .  S
O2180     Zr2189   2.389       .  S
O2180      H2205   0.966       .  S
O2184      H2220   0.990       .  S
O2185      C2187   1.294       .  A
O2186      C2187   1.286       .  A
C2187      C2709   1.473       .  S
O2188     Zr2189   2.436       .  S
O2188      H2217   0.990       .  S
Zr2189     O2192   2.437       .  S
Zr2189     O2193   2.435       .  S
Zr2189     O2194   2.421       .  S
O2190      C2195   1.290       .  A
O2191      H2208   0.990       .  S
O2191      H2223   0.990       .  S
O2192      H2209   0.990       .  S
O2193      H2213   0.990       .  S
O2193      H2222   0.990       .  S
O2194      C2195   1.280       .  A
C2195      C2327   1.480       .  S
O2196      H2215   0.991       .  S
O2196      H2219   0.991       .  S
O2197      H2211   0.990       .  S
O2197      H2218   0.990       .  S
O2198      C2202   1.297       .  A
O2199      C2202   1.282       .  A
O2200      H2210   0.990       .  S
O2201      H2214   0.990       .  S
Zr2225     O2226   2.440   1_556  S
Zr2225     O2227   2.458       .  S
Zr2225     O2231   2.464       .  S
Zr2225     O2233   2.376       .  S
Zr2225     O2234   2.407       .  S
Zr2225     O2235   2.396       .  S
Zr2225     O2236   2.428       .  S
O2227      C2247   1.288       .  A
O2228      C2249   1.304       .  A
O2229     Zr2239   2.461       .  S
O2229      C2248   1.289       .  A
O2230      C2249   1.277       .  A
O2231      C2248   1.291       .  A
O2232     Zr2240   2.393       .  S
O2232      C2247   1.275       .  A
O2233     Zr2238   2.394       .  S
O2233     Zr2240   2.404       .  S
O2234     Zr2239   2.384       .  S
O2234     Zr2240   2.370       .  S
O2234      H2269   0.965       .  S
O2235     Zr2238   2.391       .  S
O2235     Zr2255   2.388       .  S
O2235      H2272   0.967   1_556  S
O2236     Zr2239   2.402       .  S
O2236     Zr2255   2.394       .  S
Zr2237     O2262   2.441       .  S
Zr2237     O2256   2.457       .  S
Zr2237     O2264   2.507       .  S
Zr2237     O2252   2.539       .  S
Zr2237     O2243   2.426       .  S
Zr2237     O2244   2.406       .  S
Zr2237     O2245   2.393       .  S
Zr2237     O2246   2.411       .  S
Zr2238     O2257   2.441   1_556  S
Zr2238     O2250   2.434       .  S
Zr2238     O2251   2.376       .  S
Zr2238     O2244   2.401       .  S
Zr2238     O2245   2.404       .  S
Zr2239     O2241   2.435       .  S
Zr2239     O2263   2.443       .  S
Zr2239     O2265   2.461       .  S
Zr2239     O2243   2.408       .  S
Zr2239     O2246   2.386       .  S
Zr2240     O2266   2.436       .  S
Zr2240     O2267   2.436       .  S
Zr2240     O2242   2.438       .  S
Zr2240     O2243   2.382       .  S
Zr2240     O2244   2.374       .  S
O2241      H2278   0.990       .  S
O2242      H2273   0.990       .  S
O2242      H2287   0.990       .  S
O2244      H2270   0.963       .  S
O2245     Zr2255   2.378       .  S
O2246     Zr2255   2.375       .  S
O2246      H2271   0.966       .  S
C2247      C2649   1.453       .  S
C2249      C2315   1.506       .  S
O2250      H2286   0.990   1_556  S
O2251      C2253   1.274       .  A
O2252      C2253   1.307       .  A
O2254     Zr2255   2.441   1_554  S
O2254      H2283   0.991       .  S
Zr2255     O2258   2.437   1_556  S
Zr2255     O2259   2.437       .  S
Zr2255     O2260   2.417       .  S
O2256      C2261   1.285       .  A
O2258      H2275   0.990       .  S
O2259      H2279   0.989       .  S
O2259      H2288   0.990       .  S
O2260      C2261   1.282       .  A
O2262      H2281   0.990       .  S
O2262      H2285   0.990       .  S
O2263      H2277   0.989       .  S
O2263      H2284   0.990       .  S
O2264      C2268   1.298       .  A
O2265      C2268   1.290       .  A
O2266      H2276   0.990       .  S
O2267      H2280   0.991       .  S
C2268      C2334   1.511       .  S
Zr2291     O2292   2.446       .  S
Zr2291     O2293   2.535       .  S
Zr2291     O2294   2.518       .  S
Zr2291     O2297   2.432       .  S
Zr2291     O2299   2.373       .  S
Zr2291     O2300   2.408       .  S
Zr2291     O2301   2.426       .  S
Zr2291     O2302   2.436       .  S
O2292      H2348   0.990       .  S
O2292      H2356   0.991       .  S
O2293      C2313   1.300       .  A
O2294      C2315   1.302       .  A
O2295     Zr2305   2.468       .  S
O2295      C2314   1.293       .  A
O2296     Zr2304   2.468       .  S
O2296      C2315   1.288       .  A
O2297      C2314   1.280       .  A
O2298     Zr2306   2.338       .  S
O2298      C2313   1.265       .  A
O2299     Zr2304   2.412       .  S
O2299     Zr2306   2.406       .  S
O2300     Zr2305   2.405       .  S
O2300     Zr2306   2.377       .  S
O2300      H2335   0.965       .  S
O2301     Zr2304   2.396       .  S
O2301     Zr2321   2.388       .  S
O2301      H2338   0.961       .  S
O2302     Zr2305   2.387       .  S
O2302     Zr2321   2.395       .  S
Zr2303     O2328   2.442       .  S
Zr2303     O2322   2.463       .  S
Zr2303     O2330   2.477       .  S
Zr2303     O2318   2.444       .  S
Zr2303     O2309   2.386       .  S
Zr2303     O2310   2.417       .  S
Zr2303     O2311   2.385       .  S
Zr2303     O2312   2.388       .  S
Zr2304     O2323   2.436       .  S
Zr2304     O2316   2.439       .  S
Zr2304     O2317   2.426       .  S
Zr2304     O2310   2.414       .  S
Zr2304     O2311   2.394       .  S
Zr2305     O2307   2.438       .  S
Zr2305     O2329   2.437       .  S
Zr2305     O2331   2.504       .  S
Zr2305     O2309   2.372       .  S
Zr2305     O2312   2.405       .  S
Zr2306     O2332   2.437       .  S
Zr2306     O2333   2.434       .  S
Zr2306     O2308   2.439       .  S
Zr2306     O2309   2.363       .  S
Zr2306     O2310   2.344       .  S
O2307      H2344   0.990       .  S
O2308      H2339   0.990       .  S
O2308      H2353   0.990       .  S
O2310      H2336   0.963       .  S
O2311     Zr2321   2.371       .  S
O2312     Zr2321   2.387       .  S
O2312      H2337   0.967       .  S
O2316      H2352   0.990       .  S
O2317      C2319   1.287       .  A
O2318      C2319   1.285       .  A
C2319      C2710   1.451       .  S
O2320     Zr2321   2.438       .  S
O2320      H2349   0.990       .  S
Zr2321     O2324   2.438       .  S
Zr2321     O2325   2.441       .  S
Zr2321     O2326   2.436       .  S
O2322      C2327   1.287       .  A
O2323      H2340   0.990       .  S
O2323      H2355   0.990       .  S
O2324      H2341   0.990       .  S
O2325      H2345   0.990       .  S
O2325      H2354   0.990       .  S
O2326      C2327   1.281       .  A
O2328      H2347   0.991       .  S
O2328      H2351   0.990       .  S
O2329      H2343   0.990       .  S
O2329      H2350   0.990       .  S
O2330      C2334   1.293       .  A
O2331      C2334   1.298       .  A
O2332      H2342   0.990       .  S
O2333      H2346   0.990       .  S
Zr2357     O2358   2.443       .  S
Zr2357     O2359   2.512   1_455  S
Zr2357     O2360   2.468       .  S
Zr2357     O2363   2.437       .  S
Zr2357     O2365   2.396       .  S
Zr2357     O2367   2.435       .  S
Zr2357     O2368   2.427       .  S
O2358      H2414   0.991       .  S
O2358      H2422   0.990       .  S
O2359      C2379   1.287       .  A
O2360      C2381   1.290       .  A
O2361     Zr2371   2.453       .  S
O2362     Zr2370   2.465       .  S
O2362      C2381   1.290       .  A
O2363      C2380   1.280       .  A
O2364      C2379   1.265       .  A
O2365     Zr2370   2.423       .  S
O2366     Zr2371   2.396       .  S
O2366     Zr2372   2.382   1_455  S
O2366      H2401   0.966       .  S
O2367     Zr2370   2.391       .  S
O2367     Zr2387   2.400       .  S
O2367      H2404   0.964       .  S
O2368     Zr2387   2.393       .  S
Zr2369     O2394   2.445       .  S
Zr2369     O2388   2.487       .  S
Zr2369     O2396   2.450       .  S
Zr2369     O2384   2.412       .  S
Zr2369     O2375   2.400       .  S
Zr2369     O2376   2.436       .  S
Zr2369     O2378   2.394       .  S
Zr2370     O2389   2.437       .  S
Zr2370     O2382   2.438       .  S
Zr2370     O2383   2.479       .  S
Zr2370     O2377   2.373       .  S
Zr2371     O2373   2.435       .  S
Zr2371     O2395   2.440       .  S
Zr2371     O2397   2.462       .  S
Zr2371     O2375   2.380       .  S
Zr2371     O2378   2.410       .  S
Zr2372     O2398   2.432       .  S
Zr2372     O2399   2.444       .  S
Zr2372     O2375   2.374   1_655  S
Zr2372     O2376   2.352   1_655  S
O2373      H2410   0.989       .  S
O2374      H2405   0.989       .  S
O2374      H2419   0.990       .  S
O2376      H2402   0.963       .  S
O2377     Zr2387   2.374       .  S
O2378      H2403   0.965       .  S
C2381      C2466   1.499       .  S
O2382      H2418   0.990       .  S
O2383      C2385   1.296       .  A
O2386     Zr2387   2.438       .  S
O2386      H2415   0.990       .  S
Zr2387     O2390   2.438       .  S
O2388      C2393   1.292       .  A
O2389      H2406   0.990       .  S
O2389      H2421   0.990       .  S
O2390      H2407   0.991       .  S
O2391      H2411   0.990       .  S
O2391      H2420   0.990       .  S
O2392      C2393   1.283       .  A
C2393      C2525   1.493       .  S
O2394      H2413   0.990       .  S
O2394      H2417   0.991       .  S
O2395      H2409   0.990       .  S
O2395      H2416   0.990       .  S
O2396      C2400   1.285       .  A
O2397      C2400   1.291       .  A
O2398      H2408   0.990       .  S
O2399      H2412   0.990       .  S
C2400      C2447   1.488       .  S
Zr2423     O2424   2.449       .  S
Zr2423     O2425   2.499   1_455  S
Zr2423     O2426   2.465       .  S
Zr2423     O2429   2.414       .  S
Zr2423     O2431   2.384       .  S
Zr2423     O2432   2.405       .  S
Zr2423     O2433   2.436       .  S
Zr2423     O2434   2.433       .  S
O2424      H2480   0.991       .  S
O2424      H2488   0.991       .  S
O2425      C2445   1.288       .  A
O2426      C2447   1.286       .  A
O2427     Zr2437   2.456       .  S
O2427      C2446   1.293       .  A
O2428     Zr2436   2.458       .  S
O2428      C2447   1.290       .  A
O2429      C2446   1.275       .  A
O2430     Zr2438   2.364       .  S
O2430      C2445   1.263       .  A
O2431     Zr2436   2.406       .  S
O2431     Zr2438   2.399   1_455  S
O2432     Zr2437   2.384       .  S
O2432     Zr2438   2.389   1_455  S
O2432      H2467   0.964       .  S
O2433     Zr2436   2.395       .  S
O2433     Zr2453   2.403       .  S
O2433      H2470   0.963       .  S
O2434     Zr2437   2.376       .  S
O2434     Zr2453   2.408       .  S
Zr2435     O2460   2.439       .  S
Zr2435     O2454   2.457       .  S
Zr2435     O2462   2.483       .  S
Zr2435     O2450   2.427       .  S
Zr2435     O2441   2.385       .  S
Zr2435     O2442   2.419       .  S
Zr2435     O2443   2.378       .  S
Zr2435     O2444   2.382       .  S
Zr2436     O2455   2.442       .  S
Zr2436     O2448   2.434       .  S
Zr2436     O2449   2.439       .  S
Zr2436     O2442   2.417       .  S
Zr2436     O2443   2.391       .  S
Zr2437     O2439   2.437       .  S
Zr2437     O2461   2.439       .  S
Zr2437     O2463   2.452       .  S
Zr2437     O2441   2.387       .  S
Zr2437     O2444   2.400       .  S
Zr2438     O2464   2.435       .  S
Zr2438     O2465   2.432       .  S
Zr2438     O2440   2.440       .  S
Zr2438     O2441   2.376   1_655  S
Zr2438     O2442   2.354   1_655  S
O2439      H2476   0.990       .  S
O2440      H2471   0.990       .  S
O2440      H2485   0.990       .  S
O2442      H2468   0.963       .  S
O2443     Zr2453   2.359       .  S
O2444     Zr2453   2.384       .  S
O2444      H2469   0.963       .  S
O2448      H2484   0.990   1_455  S
O2449      C2451   1.288       .  A
O2450      C2451   1.285       .  A
C2451      C2723   1.459       .  S
O2452     Zr2453   2.441       .  S
O2452      H2481   0.990       .  S
Zr2453     O2456   2.441       .  S
Zr2453     O2457   2.441       .  S
Zr2453     O2458   2.453       .  S
O2454      C2459   1.287       .  A
O2455      H2472   0.990       .  S
O2455      H2487   0.990       .  S
O2456      H2473   0.989       .  S
O2457      H2477   0.990       .  S
O2457      H2486   0.990       .  S
O2458      C2459   1.286       .  A
C2459      C2591   1.485       .  S
O2460      H2479   0.989       .  S
O2460      H2483   0.990       .  S
O2461      H2475   0.990       .  S
O2461      H2482   0.990       .  S
O2462      C2466   1.294       .  A
O2463      C2466   1.290       .  A
O2464      H2474   0.990       .  S
O2465      H2478   0.990       .  S
Zr2489     O2490   2.444       .  S
Zr2489     O2491   2.509       .  S
Zr2489     O2492   2.495       .  S
Zr2489     O2495   2.440       .  S
Zr2489     O2497   2.385       .  S
Zr2489     O2498   2.402       .  S
Zr2489     O2499   2.433       .  S
Zr2489     O2500   2.427       .  S
O2490      H2546   0.991       .  S
O2490      H2554   0.990       .  S
O2491      C2511   1.293       .  A
O2492      C2513   1.295       .  A
O2493     Zr2503   2.478       .  S
O2493      C2512   1.296       .  A
O2494     Zr2502   2.463       .  S
O2494      C2513   1.289       .  A
O2495      C2512   1.283       .  A
O2496     Zr2504   2.378       .  S
O2496      C2511   1.273       .  A
O2497     Zr2502   2.413       .  S
O2497     Zr2504   2.391       .  S
O2498     Zr2503   2.399       .  S
O2498     Zr2504   2.379       .  S
O2498      H2533   0.965       .  S
O2499     Zr2502   2.406       .  S
O2499     Zr2519   2.400       .  S
O2499      H2536   0.962       .  S
O2500     Zr2503   2.386       .  S
O2500     Zr2519   2.401       .  S
Zr2501     O2520   2.470       .  S
Zr2501     O2516   2.400       .  S
Zr2501     O2507   2.394       .  S
Zr2501     O2508   2.433       .  S
Zr2501     O2509   2.375       .  S
Zr2501     O2510   2.385       .  S
Zr2502     O2521   2.435       .  S
Zr2502     O2514   2.436       .  S
Zr2502     O2515   2.467       .  S
Zr2502     O2508   2.406       .  S
Zr2502     O2509   2.389       .  S
Zr2503     O2505   2.433   1_556  S
Zr2503     O2507   2.366       .  S
Zr2503     O2510   2.409       .  S
Zr2504     O2530   2.436   1_556  S
Zr2504     O2531   2.437   1_556  S
Zr2504     O2506   2.440       .  S
Zr2504     O2507   2.375       .  S
Zr2504     O2508   2.373       .  S
O2506      H2537   0.990       .  S
O2506      H2551   0.990       .  S
O2508      H2534   0.964       .  S
O2509     Zr2519   2.364       .  S
O2510     Zr2519   2.386       .  S
O2510      H2535   0.966       .  S
C2513      C2598   1.501       .  S
O2514      H2550   0.990       .  S
O2515      C2517   1.297       .  A
O2516      C2517   1.277       .  A
C2517      C2644   1.453       .  S
O2518     Zr2519   2.436       .  S
O2518      H2547   0.990       .  S
Zr2519     O2522   2.436       .  S
Zr2519     O2523   2.438       .  S
Zr2519     O2524   2.459       .  S
O2520      C2525   1.288       .  A
O2521      H2538   0.990       .  S
O2521      H2553   0.990       .  S
O2522      H2539   0.990       .  S
O2523      H2543   0.990       .  S
O2523      H2552   0.989       .  S
O2524      C2525   1.285       .  A
O2526      H2545   0.990       .  S
O2527      H2541   0.990       .  S
O2528      C2532   1.291       .  A
O2529      C2532   1.299       .  A
O2530      H2540   0.990       .  S
O2531      H2544   0.991       .  S
C2532      C2579   1.502       .  S
Zr2555     O2556   2.444       .  S
Zr2555     O2557   2.510       .  S
Zr2555     O2558   2.483       .  S
Zr2555     O2561   2.441       .  S
Zr2555     O2563   2.389       .  S
Zr2555     O2564   2.395       .  S
Zr2555     O2565   2.436       .  S
Zr2555     O2566   2.432       .  S
O2556      H2612   0.991       .  S
O2556      H2620   0.990       .  S
O2557      C2577   1.294       .  A
O2558      C2579   1.291       .  A
O2559     Zr2569   2.464       .  S
O2559      C2578   1.296       .  A
O2560     Zr2568   2.477       .  S
O2560      C2579   1.294       .  A
O2561      C2578   1.281       .  A
O2562     Zr2570   2.357       .  S
O2562      C2577   1.270       .  A
O2563     Zr2568   2.406       .  S
O2563     Zr2570   2.402       .  S
O2564     Zr2569   2.378       .  S
O2564     Zr2570   2.388       .  S
O2564      H2599   0.966       .  S
O2565     Zr2568   2.395       .  S
O2565     Zr2585   2.391       .  S
O2565      H2602   0.960       .  S
O2566     Zr2569   2.381       .  S
O2566     Zr2585   2.408       .  S
Zr2567     O2592   2.442       .  S
Zr2567     O2586   2.471       .  S
Zr2567     O2594   2.499       .  S
Zr2567     O2582   2.433       .  S
Zr2567     O2573   2.385       .  S
Zr2567     O2574   2.429       .  S
Zr2567     O2575   2.393       .  S
Zr2567     O2576   2.394       .  S
Zr2568     O2587   2.438       .  S
Zr2568     O2580   2.436       .  S
Zr2568     O2581   2.463       .  S
Zr2568     O2574   2.406       .  S
Zr2568     O2575   2.405       .  S
Zr2569     O2571   2.437       .  S
Zr2569     O2593   2.439       .  S
Zr2569     O2595   2.453       .  S
Zr2569     O2573   2.387       .  S
Zr2569     O2576   2.410       .  S
Zr2570     O2596   2.437       .  S
Zr2570     O2597   2.437       .  S
Zr2570     O2572   2.439       .  S
Zr2570     O2573   2.369       .  S
Zr2570     O2574   2.359       .  S
O2571      H2608   0.990       .  S
O2572      H2603   0.990       .  S
O2572      H2617   0.990       .  S
O2574      H2600   0.963       .  S
O2575     Zr2585   2.373       .  S
O2576     Zr2585   2.382       .  S
O2576      H2601   0.966       .  S
O2580      H2616   0.990       .  S
O2581      C2583   1.291       .  A
O2582      C2583   1.284       .  A
C2583      C2715   1.464       .  S
O2584     Zr2585   2.437       .  S
O2584      H2613   0.990       .  S
Zr2585     O2588   2.437       .  S
Zr2585     O2589   2.439       .  S
Zr2585     O2590   2.431       .  S
O2586      C2591   1.288       .  A
O2587      H2604   0.990       .  S
O2587      H2619   0.990       .  S
O2588      H2605   0.990       .  S
O2589      H2609   0.990       .  S
O2589      H2618   0.990       .  S
O2590      C2591   1.280       .  A
O2592      H2611   0.990       .  S
O2592      H2615   0.990       .  S
O2593      H2607   0.990       .  S
O2593      H2614   0.990       .  S
O2594      C2598   1.297       .  A
O2595      C2598   1.289       .  A
O2596      H2606   0.990       .  S
O2597      H2610   0.990       .  S
Zr2621     O2627   2.480   1_554  S
Zr2621     O2629   2.342   1_454  S
Zr2621     O2630   2.381   1_554  S
Zr2621     O2632   2.373       .  S
O2622      H2678   0.990       .  S
O2622      H2686   0.990       .  S
O2624      C2645   1.289       .  A
O2625     Zr2635   2.359       .  S
O2625      C2644   1.271       .  A
O2626     Zr2634   2.370       .  S
O2626      C2645   1.269       .  A
O2627      C2644   1.293       .  A
O2628     Zr2636   2.500   1_455  S
O2628      C2643   1.297       .  A
O2629     Zr2636   2.343       .  S
O2630     Zr2635   2.404       .  S
O2630     Zr2636   2.347   1_455  S
O2630      H2665   0.961       .  S
O2631     Zr2634   2.405       .  S
O2631      H2668   0.966       .  S
O2632     Zr2635   2.413   1_554  S
O2632     Zr2651   2.434       .  S
Zr2633     O2658   2.436       .  S
Zr2633     O2652   2.388       .  S
Zr2633     O2660   2.488   1_655  S
Zr2633     O2648   2.441       .  S
Zr2633     O2639   2.414   1_655  S
Zr2633     O2640   2.432       .  S
Zr2633     O2641   2.400       .  S
Zr2633     O2642   2.379   1_655  S
Zr2634     O2653   2.438       .  S
Zr2634     O2646   2.435       .  S
Zr2635     O2637   2.437       .  S
Zr2635     O2659   2.439       .  S
Zr2635     O2661   2.378       .  S
Zr2635     O2639   2.401       .  S
Zr2635     O2642   2.377       .  S
Zr2636     O2662   2.435   1_655  S
Zr2636     O2663   2.439       .  S
Zr2636     O2638   2.436       .  S
Zr2636     O2639   2.412   1_655  S
Zr2636     O2640   2.412       .  S
O2637      H2674   0.991       .  S
O2638      H2669   0.990       .  S
O2638      H2683   0.990       .  S
O2640      H2666   0.966       .  S
O2641     Zr2651   2.377   1_656  S
O2642     Zr2651   2.355   1_556  S
O2642      H2667   0.964       .  S
C2645      C2781   1.477       .  S
O2646      H2682   0.990       .  S
O2647      C2649   1.276       .  A
O2648      C2649   1.287       .  A
O2650      H2679   0.990       .  S
Zr2651     O2655   2.441       .  S
Zr2651     O2656   2.461   1_455  S
O2652      C2657   1.277       .  A
O2653      H2670   0.990       .  S
O2653      H2685   0.990       .  S
O2654      H2671   0.990       .  S
O2655      H2675   0.991       .  S
O2655      H2684   0.990       .  S
O2656      C2657   1.291   1_554  A
O2658      H2677   0.990       .  S
O2658      H2681   0.990       .  S
O2659      H2673   0.990       .  S
O2659      H2680   0.990       .  S
O2660      C2664   1.296       .  A
O2661      C2664   1.275       .  A
O2662      H2672   0.990       .  S
O2663      H2676   0.990       .  S
C2664      C2766   1.471       .  S
Zr2687     O2688   2.435       .  S
Zr2687     O2689   2.366       .  S
Zr2687     O2690   2.401       .  S
Zr2687     O2693   2.425       .  S
Zr2687     O2695   2.341       .  S
Zr2687     O2696   2.377       .  S
Zr2687     O2697   2.399   1_655  S
Zr2687     O2698   2.358       .  S
O2688      H2744   0.990       .  S
O2688      H2752   0.990       .  S
O2689      C2709   1.270       .  A
O2690      C2711   1.277   1_655  A
O2691     Zr2701   2.414       .  S
O2691      C2710   1.283       .  A
O2692     Zr2700   2.420       .  S
O2692      C2711   1.281       .  A
O2693      C2710   1.281       .  A
O2694     Zr2702   2.492       .  S
O2694      C2709   1.293       .  A
O2695     Zr2700   2.362   1_655  S
O2695     Zr2702   2.340       .  S
O2696     Zr2701   2.412       .  S
O2696     Zr2702   2.349       .  S
O2696      H2731   0.965       .  S
O2697     Zr2700   2.408       .  S
O2697     Zr2717   2.405   1_455  S
O2697      H2734   0.966       .  S
O2698     Zr2701   2.419       .  S
O2698     Zr2717   2.424       .  S
Zr2699     O2724   2.439       .  S
Zr2699     O2718   2.413       .  S
Zr2699     O2726   2.430   1_455  S
Zr2699     O2714   2.408       .  S
Zr2699     O2705   2.416   1_455  S
Zr2699     O2706   2.427       .  S
Zr2699     O2707   2.395       .  S
Zr2699     O2708   2.378   1_455  S
Zr2700     O2719   2.436       .  S
Zr2700     O2712   2.434       .  S
Zr2700     O2713   2.451       .  S
Zr2700     O2706   2.382       .  S
Zr2700     O2707   2.343       .  S
Zr2701     O2703   2.435       .  S
Zr2701     O2725   2.439       .  S
Zr2701     O2727   2.430       .  S
Zr2701     O2705   2.407       .  S
Zr2701     O2708   2.385       .  S
Zr2702     O2728   2.434       .  S
Zr2702     O2729   2.434   1_655  S
Zr2702     O2704   2.442   1_655  S
Zr2702     O2705   2.417       .  S
Zr2702     O2706   2.402   1_655  S
O2703      H2740   0.990       .  S
O2704      H2735   0.990       .  S
O2704      H2749   0.989       .  S
O2706      H2732   0.965       .  S
O2707     Zr2717   2.395   1_455  S
O2708     Zr2717   2.367       .  S
O2708      H2733   0.965       .  S
C2711      C2753   1.478       .  S
O2712      H2748   0.990       .  S
O2713      C2715   1.289       .  A
O2714      C2715   1.278       .  A
O2716     Zr2717   2.440       .  S
O2716      H2745   0.990       .  S
Zr2717     O2720   2.435   1_655  S
Zr2717     O2721   2.438       .  S
Zr2717     O2722   2.426   1_655  S
O2718      C2723   1.283       .  A
O2719      H2736   0.990       .  S
O2719      H2751   0.990       .  S
O2720      H2737   0.990       .  S
O2721      H2741   0.990       .  S
O2721      H2750   0.990       .  S
O2722      C2723   1.284       .  A
O2724      H2743   0.990       .  S
O2724      H2747   0.990       .  S
O2725      H2739   0.990       .  S
O2725      H2746   0.990       .  S
O2726      C2730   1.285       .  A
O2727      C2730   1.282       .  A
O2728      H2738   0.990       .  S
O2729      H2742   0.990       .  S
C2730      C2794   1.484       .  S
C2753      C2754   1.418       .  A
C2753      C2758   1.408       .  A
C2754      C2755   1.388       .  A
C2754      N2759   1.434   1_455  S
C2755      C2756   1.413       .  A
C2755      H2760   1.082       .  S
C2756      C2761   1.501       .  S
C2756      C2757   1.409       .  A
C2757      C2758   1.403       .  A
C2757      N2762   1.431       .  S
C2758      H2763   1.084       .  S
N2759      H2779   1.045       .  S
N2759      H2780   1.045       .  S
C2761      C2764   1.408       .  A
C2761      C2768   1.412       .  A
N2762      H2777   1.045       .  S
N2762      H2778   1.045       .  S
C2764      C2765   1.409       .  A
C2764      H2769   1.078       .  S
C2765      C2766   1.419       .  A
C2765      N2770   1.431       .  S
C2766      C2767   1.407       .  A
C2767      C2768   1.398       .  A
C2767      H2771   1.084       .  S
C2768      N2772   1.433       .  S
N2770      H2773   1.046       .  S
N2770      H2774   1.043   1_455  S
N2772      H2775   1.045       .  S
N2772      H2776   1.044       .  S
C2781      C2782   1.412       .  A
C2781      C2786   1.397       .  A
C2782      C2783   1.397       .  A
C2782      N2787   1.433       .  S
C2783      C2784   1.412       .  A
C2783      H2788   1.082       .  S
C2784      C2789   1.511       .  S
C2784      C2785   1.411       .  A
C2785      C2786   1.407       .  A
C2785      N2790   1.430       .  S
C2786      H2791   1.079       .  S
N2787      H2807   1.046       .  S
N2787      H2808   1.046       .  S
C2789      C2792   1.406       .  A
C2789      C2796   1.409       .  A
N2790      H2805   1.043       .  S
N2790      H2806   1.044       .  S
C2792      C2793   1.409       .  A
C2792      H2797   1.083       .  S
C2793      C2794   1.429       .  A
C2793      N2798   1.431       .  S
C2794      C2795   1.409       .  A
C2795      C2796   1.398       .  A
C2795      H2799   1.080   1_655  S
C2796      N2800   1.431       .  S
N2798      H2801   1.044       .  S
N2798      H2802   1.045       .  S
N2800      H2803   1.045       .  S
N2800      H2804   1.044   1_655  S
C2809      C2810   1.405       .  A
C2809      C2814   1.414       .  A
C2810      C2811   1.404       .  A
C2810      N2815   1.430       .  S
C2811      C2812   1.418       .  A
C2811      H2816   1.080       .  S
C2812      C2817   1.507       .  S
C2812      C2813   1.401       .  A
C2813      C2814   1.405       .  A
C2813      N2818   1.435       .  S
C2814      H2819   1.073       .  S
N2815      H2835   1.045       .  S
N2815      H2836   1.044       .  S
C2817      C2820   1.420       .  A
C2817      C2824   1.402       .  A
N2818      H2833   1.046       .  S
N2818      H2834   1.045       .  S
C2820      C2821   1.412       .  A
C2820      H2825   1.082       .  S
C2821      C2822   1.402       .  A
C2821      N2826   1.431       .  S
C2822      C2823   1.404       .  A
C2823      C2824   1.399       .  A
C2823      H2827   1.074       .  S
C2824      N2828   1.431       .  S
N2826      H2829   1.046   1_565  S
N2826      H2830   1.045       .  S
N2828      H2831   1.045       .  S
N2828      H2832   1.043       .  S
C2837      C2838   1.395       .  A
C2837      C2842   1.409       .  A
C2838      C2839   1.386   1_545  A
C2838      N2843   1.428       .  S
C2839      C2840   1.414       .  A
C2839      H2844   1.072       .  S
C2840      C2845   1.513       .  S
C2840      C2841   1.409       .  A
C2841      C2842   1.407   1_565  A
C2841      N2846   1.430       .  S
C2842      H2847   1.068       .  S
N2843      H2863   1.038       .  S
N2843      H2864   1.045   1_545  S
C2845      C2848   1.415       .  A
C2845      C2852   1.408       .  A
N2846      H2861   1.046       .  S
N2846      H2862   1.045   1_565  S
C2848      C2849   1.410       .  A
C2848      H2853   1.078       .  S
C2849      C2850   1.409       .  A
C2849      N2854   1.431       .  S
C2850      C2851   1.414       .  A
C2851      C2852   1.409       .  A
C2851      H2855   1.082       .  S
C2852      N2856   1.433       .  S
N2854      H2857   1.045       .  S
N2854      H2858   1.045       .  S
N2856      H2859   1.045       .  S
N2856      H2860   1.045       .  S
