geometry optimzed in LAMMPS
_audit_creation_date              2020-12-01 
_audit_creation_method            'lammps2cif' 
_symmetry_space_group_name_H-M    'P1' 
_symmetry_Int_Tables_number       1 
_symmetry_cell_setting            triclinic 
loop_ 
_symmetry_equiv_pos_as_xyz 
  x,y,z 
_cell_length_a                    49.87723065 
_cell_length_b                    49.48549865100677 
_cell_length_c                    49.82656214989625 
_cell_angle_alpha                 87.67980309355411 
_cell_angle_beta                  90.88095629363171 
_cell_angle_gamma                 90.35675123743232 
loop_ 
_atom_site_label 
_atom_site_type_symbol 
_atom_site_fract_x 
_atom_site_fract_y 
_atom_site_fract_z 
_atom_site_charge 
N1          N  0.62112362  0.15038051  0.27078267     0.01100
C2          C  0.63272828  0.13528995  0.25200016    -0.09700
C3          C  0.61947520  0.11079354  0.24872320    -0.05300
C4          C  0.59885773  0.11145771  0.26820837    -0.05900
C5          C  0.59988783  0.13658544  0.28065279    -0.09800
N6          N  0.36951833  0.10823830  0.27479805     0.01100
C7          C  0.35340702  0.09444054  0.25819410    -0.09700
C8          C  0.36095908  0.06732390  0.25705206    -0.05300
C9          C  0.38255120  0.06517362  0.27600409    -0.05900
C10         C  0.38743667  0.09092219  0.28573602    -0.09800
C11         C  0.48857237  0.19019136  0.40276053     0.32700
C12         C  0.52994656  0.17617714  0.36891982     0.32700
C13         C  0.48422287  0.16379165  0.38785466    -0.03500
C14         C  0.49483300  0.21039121  0.37896578    -0.04300
C15         C  0.51628739  0.18559580  0.41584733    -0.04200
C16         C  0.50533905  0.15642441  0.37118765    -0.03500
C17         C  0.51589298  0.20351770  0.36239334    -0.04300
C18         C  0.53806563  0.17984786  0.39942499    -0.04200
C19         C  0.49446063  0.13855171  0.35316798    -0.29600
N20         N  0.46758323  0.13596906  0.35682071     0.16900
C21         C  0.46122940  0.15195231  0.37737414    -0.29600
H22         H  0.44095040  0.15702882  0.38260327     0.18900
C23         C  0.51890493  0.22457997  0.34356766    -0.28600
N24         N  0.49991093  0.24365555  0.34738715     0.15700
C25         C  0.48484819  0.23480627  0.36866196    -0.28500
C26         C  0.56047977  0.18874040  0.41466664    -0.28800
N27         N  0.55251145  0.19647541  0.43956320     0.16200
H28         H  0.58064964  0.19148531  0.40735074     0.18800
C29         C  0.52569416  0.19375020  0.44014556    -0.28800
H30         H  0.51342073  0.19957815  0.45663730     0.18800
H31         H  0.46775394  0.24531214  0.37619888     0.18800
H32         H  0.50528306  0.12963961  0.33717396     0.18900
H33         H  0.53444174  0.22618082  0.32866644     0.18800
N34         N  0.39635381  0.81090492  0.26692310     0.01100
C35         C  0.38009454  0.82426634  0.24900770    -0.09700
C36         C  0.39154983  0.84863098  0.24127153    -0.05300
C37         C  0.41597686  0.84992620  0.25545714    -0.05900
C38         C  0.41889612  0.82579031  0.27113776    -0.09800
N39         N  0.67383808  0.85831265  0.25761880     0.01100
C40         C  0.68654471  0.87383447  0.23881885    -0.09700
C41         C  0.67184009  0.89665175  0.23158439    -0.05300
C42         C  0.64942262  0.89520676  0.24785267    -0.05900
C43         C  0.65095309  0.87096098  0.26324533    -0.09800
C44         C  0.72034174  0.02057732  0.11597713     0.32700
C45         C  0.70338635  0.97671257  0.14695242     0.32700
C46         C  0.71095420  0.99506467  0.10046071    -0.03500
C47         C  0.74134709  0.00827174  0.13638168    -0.04300
C48         C  0.69632960  0.02619378  0.13517471    -0.04200
C49         C  0.70313020  0.97205383  0.11613677    -0.03500
C50         C  0.73270687  0.98524610  0.15053568    -0.04300
C51         C  0.68779009  0.00355098  0.15029743    -0.04200
C52         C  0.71196522  0.94990445  0.10151940    -0.29600
N53         N  0.72236547  0.95829738  0.07721901     0.16900
C54         C  0.72126236  0.98570190  0.07669539    -0.29600
H55         H  0.72933690  0.99854592  0.06073678     0.18900
C56         C  0.75328339  0.97610407  0.16670822    -0.28600
N57         N  0.77315715  0.99477359  0.16652200     0.15700
C58         C  0.76637573  0.01455598  0.14767318    -0.28500
C59         C  0.67180849  0.01249872  0.17092966    -0.28800
N60         N  0.67070321  0.04005472  0.17040460     0.16200
H61         H  0.66263990  0.99936920  0.18605518     0.18800
C62         C  0.68642995  0.04845688  0.14901750    -0.28800
H63         H  0.69197378  0.06931617  0.14464897     0.18800
H64         H  0.77787383  0.03282884  0.14356694     0.18800
H65         H  0.71330916  0.92932776  0.10960541     0.18900
H66         H  0.75304675  0.95769439  0.17916756     0.18800
C67         C  0.50637345  0.78701365  0.34775979     0.32700
C68         C  0.54757854  0.77398688  0.38422508     0.32700
C69         C  0.49909673  0.78534681  0.37805720    -0.03500
C70         C  0.52062447  0.75931706  0.34428701    -0.04300
C71         C  0.53126578  0.80617653  0.34732429    -0.04200
C72         C  0.52028819  0.77977576  0.39571911    -0.03500
C73         C  0.54084054  0.75260108  0.36334226    -0.04300
C74         C  0.55233452  0.79945437  0.36588515    -0.04200
C75         C  0.51081584  0.77843571  0.42122713    -0.29600
N76         N  0.48377944  0.78041803  0.42047341     0.16900
C77         C  0.47629134  0.78499825  0.39402371    -0.29600
H78         H  0.45584746  0.78642788  0.38659107     0.18900
C79         C  0.55157428  0.72806770  0.35673260    -0.28600
N80         N  0.53940022  0.72000605  0.33384879     0.15700
C81         C  0.52164105  0.73936940  0.32548012    -0.28500
C82         C  0.57563508  0.80943609  0.35434762    -0.28800
N83         N  0.56971092  0.82318094  0.33107411     0.16200
H84         H  0.59590627  0.80456042  0.36078213     0.18800
C85         C  0.54309020  0.82035136  0.32595650    -0.28800
H86         H  0.53334558  0.82623107  0.30707153     0.18800
H87         H  0.51120667  0.73897617  0.30639309     0.18800
H88         H  0.52315944  0.77568710  0.43910914     0.18900
H89         H  0.56746340  0.71716045  0.36740474     0.18800
C90         C  0.28667907  0.96934023  0.13302226     0.32700
C91         C  0.30604630  0.00051554  0.17494214     0.32700
C92         C  0.30094512  0.99592109  0.12532637    -0.03500
C93         C  0.26525153  0.97889641  0.15355899    -0.04300
C94         C  0.30759906  0.95576727  0.15265849    -0.04200
C95         C  0.31108996  0.01166212  0.14577863    -0.03500
C96         C  0.27529351  0.99465137  0.17440318    -0.04300
C97         C  0.31778419  0.97188275  0.17310864    -0.04200
C98         C  0.32139758  0.03483543  0.13281753    -0.29600
N99         N  0.31547280  0.03433567  0.10620367     0.16900
C100        C  0.30401187  0.01017552  0.10138491    -0.29600
H101        H  0.29555952  0.00477351  0.08217542     0.18900
C102        C  0.25402904  0.99992525  0.19100843    -0.28600
N103        N  0.23109058  0.98747195  0.18217833     0.15700
C104        C  0.23813772  0.97437868  0.15942561    -0.28500
C105        C  0.33626741  0.95656950  0.18765424    -0.28800
N106        N  0.33644626  0.93136504  0.17819910     0.16200
H107        H  0.34835316  0.96275367  0.20453739     0.18800
C108        C  0.31870769  0.93029842  0.15728360    -0.28800
H109        H  0.31359671  0.91212429  0.14691997     0.18800
H110        H  0.22500628  0.96132770  0.14829784     0.18800
H111        H  0.33108076  0.05190728  0.14169220     0.18900
H112        H  0.25566261  0.01229647  0.20831003     0.18800
N113        N  0.17881350  0.25191874  0.64535222     0.01100
C114        C  0.16162286  0.23705390  0.66084769    -0.09700
C115        C  0.13636705  0.23465502  0.64900155    -0.05300
C116        C  0.13885484  0.24998747  0.62476676    -0.05900
C117        C  0.16519347  0.26014252  0.62310186    -0.09800
N118        N  0.17715279  0.20242353  0.39942119     0.01100
C119        C  0.15826150  0.18696650  0.38779417    -0.09700
C120        C  0.13482790  0.18735501  0.40213273    -0.05300
C121        C  0.13935613  0.20546185  0.42246063    -0.05900
C122        C  0.16624110  0.21295077  0.42107615    -0.09800
C123        C  0.22053625  0.33209626  0.54369149     0.32700
C124        C  0.23379575  0.36427931  0.49953680     0.32700
C125        C  0.22072782  0.36305298  0.54767640    -0.03500
C126        C  0.24930900  0.32768066  0.53231084    -0.04300
C127        C  0.20261192  0.32921653  0.51832302    -0.04200
C128        C  0.22612783  0.37900008  0.52468986    -0.03500
C129        C  0.25575488  0.34446291  0.50989131    -0.04300
C130        C  0.21031766  0.34471124  0.49534006    -0.04200
C131        C  0.23275868  0.40451811  0.53249632    -0.29600
N132        N  0.23357727  0.40471690  0.55947415     0.16900
C133        C  0.22717142  0.37937919  0.56916102    -0.29600
H134        H  0.22926514  0.37263186  0.59001630     0.18900
C135        C  0.28007017  0.33618013  0.50035872    -0.28600
N136        N  0.28922744  0.31524956  0.51627602     0.15700
C137        C  0.27088435  0.30998670  0.53591698    -0.28500
C138        C  0.20655441  0.32789345  0.47403938    -0.28800
N139        N  0.19481516  0.30441811  0.48250775     0.16200
H140        H  0.21549552  0.33113593  0.45451156     0.18800
C141        C  0.19184220  0.30541635  0.50929193    -0.28800
H142        H  0.18473330  0.28879916  0.52200581     0.18800
H143        H  0.27311265  0.29418833  0.55139758     0.18800
H144        H  0.23944744  0.42124976  0.51960735     0.18900
H145        H  0.28986578  0.34402803  0.48241594     0.18800
N146        N  0.86740572  0.22738789  0.38181480     0.01100
C147        C  0.87930609  0.20937472  0.36599412    -0.09700
C148        C  0.90722696  0.20717351  0.37060398    -0.05300
C149        C  0.91132586  0.22619653  0.39089604    -0.05900
C150        C  0.88671005  0.23813505  0.39700634    -0.09800
N151        N  0.85839945  0.24587692  0.62631582     0.01100
C152        C  0.87791217  0.23145939  0.63913214    -0.09700
C153        C  0.90052622  0.23209042  0.62350743    -0.05300
C154        C  0.89440468  0.24820317  0.60073535    -0.05900
C155        C  0.86803459  0.25619620  0.60304332    -0.09800
C156        C  0.05480797  0.15987335  0.70131420     0.32700
C157        C  0.01715321  0.12108429  0.72020437     0.32700
C158        C  0.06052639  0.13015076  0.69624620    -0.03500
C159        C  0.04998508  0.15842787  0.73236421    -0.04300
C160        C  0.02597153  0.16224898  0.69039525    -0.04200
C161        C  0.04137958  0.11105317  0.70508551    -0.03500
C162        C  0.03057517  0.13943526  0.74183848    -0.04300
C163        C  0.00684647  0.14316346  0.69977251    -0.04200
C164        C  0.05336885  0.08630899  0.70595674    -0.29600
N165        N  0.07928064  0.08969021  0.69929218     0.16900
C166        C  0.08409397  0.11625090  0.69407706    -0.29600
H167        H  0.10392010  0.12521049  0.69273696     0.18900
C168        C  0.02363988  0.14779160  0.76729873    -0.28600
N169        N  0.03957991  0.16895400  0.77471880     0.15700
C170        C  0.05604309  0.17484949  0.75359540    -0.28500
C171        C  0.98285734  0.15052719  0.68755254    -0.28800
N172        N  0.98712392  0.17272095  0.67099135     0.16200
H173        H  0.96358764  0.14099135  0.69110782     0.18800
C174        C  0.01340200  0.17969099  0.67248058    -0.28800
H175        H  0.02277520  0.19636425  0.66139108     0.18800
H176        H  0.07139216  0.19026939  0.75351161     0.18800
H177        H  0.04529046  0.06797954  0.71540895     0.18900
H178        H  0.00679314  0.14005605  0.77870471     0.18800
C179        C  0.79894711  0.37477971  0.49133764     0.32700
C180        C  0.81827419  0.33881634  0.53088222     0.32700
C181        C  0.81372565  0.38687080  0.51569429    -0.03500
C182        C  0.77733681  0.35556066  0.50568144    -0.04300
C183        C  0.81986999  0.35342462  0.48216651    -0.04200
C184        C  0.82266532  0.36866593  0.53610751    -0.03500
C185        C  0.78785083  0.33800343  0.52588165    -0.04300
C186        C  0.82957516  0.33607570  0.50281149    -0.04200
C187        C  0.82068927  0.38216389  0.55968722    -0.29600
N188        N  0.81453205  0.40829428  0.55416804     0.16900
C189        C  0.80987101  0.41132099  0.52745078    -0.29600
H190        H  0.80192849  0.42941727  0.51748889     0.18900
C191        C  0.76728656  0.32310065  0.53711863    -0.28600
N192        N  0.74392359  0.32872578  0.52372141     0.15700
C193        C  0.74990010  0.34855871  0.50439526    -0.28500
C194        C  0.84529992  0.31679889  0.49204228    -0.28800
N195        N  0.84487744  0.32006441  0.46500072     0.16200
H196        H  0.85516031  0.30032919  0.50313049     0.18800
C197        C  0.82930813  0.34230900  0.45851781    -0.28800
H198        H  0.82382903  0.34891543  0.43821614     0.18800
H199        H  0.73568081  0.35672983  0.48968261     0.18800
H200        H  0.82060473  0.37287172  0.57973108     0.18900
H201        H  0.76957304  0.30931046  0.55433595     0.18800
C202        C  0.98132078  0.12690887  0.31777275     0.32700
C203        C  0.01635674  0.08821526  0.29638730     0.32700
C204        C  0.97398112  0.09705383  0.32193285    -0.03500
C205        C  0.98633453  0.12918907  0.28694419    -0.04300
C206        C  0.01042454  0.12645105  0.32806891    -0.04200
C207        C  0.99115384  0.07805845  0.31119239    -0.03500
C208        C  0.00381215  0.10973980  0.27604872    -0.04300
C209        C  0.02831780  0.10751539  0.31766958    -0.04200
C210        C  0.97886228  0.05352036  0.31446743    -0.29600
N211        N  0.95511401  0.05655751  0.32717566     0.16900
C212        C  0.95219024  0.08322911  0.33198439    -0.29600
H213        H  0.93509029  0.09239680  0.34093003     0.18900
C214        C  0.01344127  0.12183538  0.25236090    -0.28600
N215        N  0.00206767  0.14653282  0.24788242     0.15700
C216        C  0.98684780  0.15155504  0.26936109    -0.28500
C217        C  0.05308162  0.11322300  0.32923549    -0.28800
N218        N  0.05030283  0.13416289  0.34609555     0.16200
H219        H  0.07179664  0.10347853  0.32494589     0.18800
C220        C  0.02436027  0.14194078  0.34537270    -0.28800
H221        H  0.01601415  0.15789059  0.35675083     0.18800
H222        H  0.97805994  0.17097589  0.27273619     0.18800
H223        H  0.98577203  0.03521028  0.30574110     0.18900
H224        H  0.02928991  0.11414215  0.24026713     0.18800
N225        N  0.27229962  0.60445633  0.19263926     0.01100
C226        C  0.25654342  0.61935225  0.17511801    -0.09700
C227        C  0.25454777  0.60691794  0.15071383    -0.05300
C228        C  0.27135606  0.58432512  0.15363073    -0.05900
C229        C  0.28148376  0.58290924  0.17985703    -0.09800
N230        N  0.24266658  0.35233859  0.15794574     0.01100
C231        C  0.25681927  0.37096859  0.14384284    -0.09700
C232        C  0.24755504  0.37222307  0.11750676    -0.05300
C233        C  0.22632281  0.35398742  0.11538876    -0.05900
C234        C  0.22398102  0.34207200  0.14107643    -0.09800
C235        C  0.36358635  0.50107199  0.21823486     0.32700
C236        C  0.39529684  0.45669611  0.23324240     0.32700
C237        C  0.39451404  0.50639119  0.21982357    -0.03500
C238        C  0.35880815  0.48786418  0.24640471    -0.04300
C239        C  0.36178949  0.47602232  0.20005988    -0.04200
C240        C  0.40986984  0.48329239  0.22598850    -0.03500
C241        C  0.37424530  0.46529605  0.25385434    -0.04300
C242        C  0.37741470  0.45319724  0.20806109    -0.04200
C243        C  0.43580055  0.49097560  0.23106287    -0.29600
N244        N  0.43703866  0.51805319  0.23161773     0.16900
C245        C  0.41194872  0.52780233  0.22576729    -0.29600
H246        H  0.40644000  0.54861868  0.22823914     0.18900
C247        C  0.36395698  0.45495608  0.27788485    -0.28600
N248        N  0.34374889  0.47122117  0.28593706     0.15700
C249        C  0.34102126  0.49157619  0.26683068    -0.28500
C250        C  0.36319159  0.43090412  0.19931788    -0.28800
N251        N  0.34134484  0.43911925  0.18460591     0.16200
H252        H  0.36687434  0.41012247  0.20586746     0.18800
C253        C  0.34062929  0.46649608  0.18475359    -0.28800
H254        H  0.32447761  0.47863266  0.17616484     0.18800
H255        H  0.32710394  0.50816606  0.26748087     0.18800
H256        H  0.45238366  0.47763098  0.23603943     0.18900
H257        H  0.37024055  0.43628832  0.28803004     0.18800
N258        N  0.28464016  0.38940088  0.84550136     0.01100
C259        C  0.26654705  0.37613526  0.86125838    -0.09700
C260        C  0.26222100  0.39004752  0.88454483    -0.05300
C261        C  0.27945704  0.41266418  0.88244156    -0.05900
C262        C  0.29220829  0.41192851  0.85778405    -0.09800
N263        N  0.27286360  0.64520799  0.89015780     0.01100
C264        C  0.25725045  0.65787386  0.90744905    -0.09700
C265        C  0.26075450  0.64790193  0.93344752    -0.05300
C266        C  0.28014914  0.62792246  0.93155767    -0.05900
C267        C  0.28704647  0.62695914  0.90476588    -0.09800
C268        C  0.18247806  0.70068595  0.99975944     0.32700
C269        C  0.14411555  0.71779292  0.03479230     0.32700
C270        C  0.18176356  0.68613054  0.02762151    -0.03500
C271        C  0.18456949  0.73094086  0.00692143    -0.04300
C272        C  0.15313319  0.69922985  0.98957779    -0.04200
C273        C  0.16308049  0.69462350  0.04591198    -0.03500
C274        C  0.16537253  0.73991420  0.02487039    -0.04300
C275        C  0.13399469  0.70652729  0.00798551    -0.04200
C276        C  0.17080348  0.68184860  0.07054894    -0.29600
N277        N  0.19252706  0.66538654  0.06705130     0.16900
C278        C  0.19879764  0.66794117  0.04066863    -0.29600
H279        H  0.21520710  0.65783912  0.03140533     0.18900
C280        C  0.17178385  0.76724496  0.02854939    -0.28600
N281        N  0.19295859  0.77534787  0.01271022     0.15700
C282        C  0.20036210  0.75310667  0.99926704    -0.28500
C283        C  0.11073299  0.71238073  0.99373993    -0.28800
N284        N  0.11519319  0.71183541  0.96714755     0.16200
H285        H  0.09215277  0.71870062  0.00229553     0.18800
C286        C  0.14123564  0.70438019  0.96428831    -0.28800
H287        H  0.15167928  0.70509995  0.94539408     0.18800
H288        H  0.21575002  0.75302485  0.98423830     0.18800
H289        H  0.16206913  0.68550668  0.08979528     0.18900
H290        H  0.16197824  0.78010186  0.04237609     0.18800
C291        C  0.37504059  0.48999831  0.81924803     0.32700
C292        C  0.40715335  0.53319965  0.80276070     0.32700
C293        C  0.40569762  0.48588774  0.82342524    -0.03500
C294        C  0.37350713  0.49827977  0.78916917    -0.04300
C295        C  0.37040559  0.51720410  0.83254859    -0.04200
C296        C  0.42151696  0.50877099  0.81630559    -0.03500
C297        C  0.38943796  0.52025033  0.78065448    -0.04300
C298        C  0.38595804  0.53924429  0.82371500    -0.04200
C299        C  0.44716388  0.50038631  0.81216548    -0.29600
N300        N  0.44767172  0.47331656  0.81376883     0.16900
C301        C  0.42256001  0.46412575  0.81911700    -0.29600
H302        H  0.41631881  0.44345577  0.81628085     0.18900
C303        C  0.38076628  0.52735235  0.75470630    -0.28600
N304        N  0.36115575  0.50977962  0.74714833     0.15700
C305        C  0.35683971  0.49190383  0.76804409    -0.28500
C306        C  0.37504308  0.56181674  0.83461036    -0.28800
N307        N  0.35469667  0.55390608  0.85104940     0.16200
H308        H  0.38054383  0.58263211  0.82990059     0.18800
C309        C  0.35184484  0.52668366  0.84998217    -0.28800
H310        H  0.33690593  0.51467672  0.86061968     0.18800
H311        H  0.34174180  0.47610030  0.76827093     0.18800
H312        H  0.46346495  0.51274631  0.80434917     0.18900
H313        H  0.38714706  0.54494373  0.74280571     0.18800
C314        C  0.13283285  0.29311530  0.98350456     0.32700
C315        C  0.16065203  0.31480903  0.02570150     0.32700
C316        C  0.11596784  0.30104883  0.00775677    -0.03500
C317        C  0.15490889  0.27488333  0.99691658    -0.04300
C318        C  0.14928355  0.31916439  0.97647583    -0.04200
C319        C  0.13002683  0.31131618  0.02968513    -0.03500
C320        C  0.16832483  0.28581773  0.01877542    -0.04300
C321        C  0.16292371  0.33041119  0.99816275    -0.04200
C322        C  0.11498579  0.30335626  0.05212642    -0.29600
N323        N  0.09156110  0.29141271  0.04449812     0.16900
C324        C  0.09236424  0.28965962  0.01744481    -0.29600
H325        H  0.07771381  0.27910662  0.00550725     0.18900
C326        C  0.18772263  0.26771444  0.02738408    -0.28600
N327        N  0.18821092  0.24698091  0.01039843     0.15700
C328        C  0.16841792  0.25129000  0.99153248    -0.28500
C329        C  0.18329346  0.34663765  0.98753047    -0.28800
N330        N  0.18358724  0.34524514  0.96031665     0.16200
H331        H  0.19782057  0.35750439  0.99930423     0.18800
C332        C  0.16343022  0.32775578  0.95366089    -0.28800
H333        H  0.16049411  0.31981579  0.93391026     0.18800
H334        H  0.16499822  0.23895410  0.97436198     0.18800
H335        H  0.12194647  0.30381325  0.07277248     0.18900
H336        H  0.20105545  0.26983640  0.04449790     0.18800
N337        N  0.76450316  0.35011399  0.16233061     0.01100
C338        C  0.74822091  0.36461327  0.17765357    -0.09700
C339        C  0.74753664  0.39136849  0.16850596    -0.05300
C340        C  0.76511954  0.39289815  0.14685973    -0.05900
C341        C  0.77461482  0.36691315  0.14312115    -0.09800
N342        N  0.75017411  0.65334111  0.12681203     0.01100
C343        C  0.73560015  0.63218750  0.13623539    -0.09700
C344        C  0.73946831  0.61029456  0.12055075    -0.05300
C345        C  0.75858907  0.61807585  0.10178269    -0.05900
C346        C  0.76405605  0.64512497  0.10582386    -0.09800
N347        N  0.75978954  0.63223406  0.86161145     0.01100
C348        C  0.77754191  0.64905326  0.87414925    -0.09700
C349        C  0.78812805  0.63646225  0.89759075    -0.05300
C350        C  0.77555601  0.61056392  0.89831982    -0.05900
C351        C  0.75751919  0.60842036  0.87600129    -0.09800
N352        N  0.76809392  0.34879019  0.88780488     0.01100
C353        C  0.78605227  0.33187444  0.89969629    -0.09700
C354        C  0.79423607  0.34120756  0.92414086    -0.05300
C355        C  0.77986617  0.36490556  0.92722356    -0.05900
C356        C  0.76414119  0.36922861  0.90418426    -0.09800
C357        C  0.67944352  0.52232393  0.83488337     0.32700
C358        C  0.64520348  0.48030338  0.81793465     0.32700
C359        C  0.64887316  0.52887002  0.83184508    -0.03500
C360        C  0.68454575  0.51093167  0.80676618    -0.04300
C361        C  0.67892870  0.49562223  0.85258237    -0.04200
C362        C  0.63224241  0.50729056  0.82394582    -0.03500
C363        C  0.66807495  0.48943207  0.79881712    -0.04300
C364        C  0.66147271  0.47448171  0.84416209    -0.04200
C365        C  0.60799142  0.51756493  0.81573965    -0.29600
N366        N  0.60888890  0.54468497  0.81672906     0.16900
C367        C  0.63374920  0.55207570  0.82577433    -0.29600
H368        H  0.64105988  0.57271151  0.82565441     0.18900
C369        C  0.67876656  0.48004027  0.77560241    -0.28600
N370        N  0.69991940  0.49603146  0.76788584     0.15700
C371        C  0.70277641  0.51540326  0.78649934    -0.28500
C372        C  0.67279719  0.45059662  0.85401160    -0.28800
N373        N  0.69504719  0.45602445  0.86873258     0.16200
H374        H  0.66716504  0.43049313  0.84815382     0.18800
C375        C  0.69942912  0.48309356  0.86733197    -0.28800
H376        H  0.71763465  0.49275517  0.87428148     0.18800
H377        H  0.71683668  0.53204484  0.78542809     0.18800
H378        H  0.59157584  0.50634665  0.80698048     0.18900
H379        H  0.67205149  0.46200123  0.76597522     0.18800
C380        C  0.90057855  0.27599360  0.04496964     0.32700
C381        C  0.86827499  0.29339588  0.00329970     0.32700
C382        C  0.91431929  0.28214760  0.01811916    -0.03500
C383        C  0.87776736  0.25627307  0.03739170    -0.04300
C384        C  0.88455091  0.30212600  0.04987927    -0.04200
C385        C  0.89813915  0.29021491  0.99676722    -0.03500
C386        C  0.86076436  0.26567575  0.01663664    -0.04300
C387        C  0.86845107  0.31145955  0.02811103    -0.04200
C388        C  0.91382506  0.28937800  0.97396064    -0.29600
N389        N  0.93936478  0.28178357  0.98126526     0.16900
C390        C  0.93962585  0.27791473  0.00845266    -0.29600
H391        H  0.95676548  0.27169502  0.02063603     0.18900
C392        C  0.83930124  0.24802495  0.01610871    -0.28600
N393        N  0.84409793  0.22682439  0.03341282     0.15700
C394        C  0.86729826  0.23178524  0.04707600    -0.28500
C395        C  0.84761062  0.32587763  0.03882816    -0.28800
N396        N  0.84977874  0.32571799  0.06613549     0.16200
H397        H  0.83117100  0.33432521  0.02700494     0.18800
C398        C  0.87150564  0.31009272  0.07277966    -0.28800
H399        H  0.87616959  0.30234690  0.09290100     0.18800
H400        H  0.87563046  0.21872476  0.06298761     0.18800
H401        H  0.90649979  0.29233475  0.95352267     0.18900
H402        H  0.82096634  0.25022679  0.00447301     0.18800
C403        C  0.87321364  0.68637265  0.97063479     0.32700
C404        C  0.91133632  0.70672062  0.00712369     0.32700
C405        C  0.90245632  0.67756003  0.96730281    -0.03500
C406        C  0.87658481  0.71789784  0.97054915    -0.04300
C407        C  0.86922532  0.67941482  0.00069827    -0.04200
C408        C  0.92129416  0.68692239  0.98638064    -0.03500
C409        C  0.89521065  0.72812462  0.98950960    -0.04300
C410        C  0.88776373  0.69018573  0.01946011    -0.04200
C411        C  0.94582932  0.68740759  0.97444055    -0.29600
N412        N  0.94277152  0.68163791  0.94839573     0.16900
C413        C  0.91659943  0.67593444  0.94381459    -0.29600
H414        H  0.90748580  0.67635102  0.92392771     0.18900
C415        C  0.88542945  0.75350706  0.99557826    -0.28600
N416        N  0.86385295  0.76036202  0.97956601     0.15700
C417        C  0.85888696  0.73879735  0.96402869    -0.28500
C418        C  0.87327208  0.69281221  0.04276037    -0.28800
N419        N  0.84813000  0.68246612  0.03919249     0.16200
H420        H  0.87993851  0.70348186  0.06020173     0.18800
C421        C  0.84591445  0.67408699  0.01381042    -0.28800
H422        H  0.82791301  0.66595737  0.00478602     0.18800
H423        H  0.84285893  0.73783334  0.94933885     0.18800
H424        H  0.96324937  0.69793027  0.98216268     0.18900
H425        H  0.89224037  0.76491287  0.01246742     0.18800
C426        C  0.67357910  0.46584966  0.21961955     0.32700
C427        C  0.64298270  0.50905209  0.23480910     0.32700
C428        C  0.64288574  0.46066041  0.22127588    -0.03500
C429        C  0.67987589  0.47648492  0.24792949    -0.04300
C430        C  0.67479841  0.49189903  0.20184229    -0.04200
C431        C  0.62785273  0.48319211  0.22819334    -0.03500
C432        C  0.66471508  0.49861040  0.25551107    -0.04300
C433        C  0.65997103  0.51388213  0.20966468    -0.04200
C434        C  0.60299589  0.47457106  0.23593729    -0.29600
N435        N  0.60222033  0.44753424  0.23544934     0.16900
C436        C  0.62656103  0.43849054  0.22796285    -0.29600
H437        H  0.63251058  0.41748994  0.22942276     0.18900
C438        C  0.67560149  0.50653421  0.27975551    -0.28600
N439        N  0.69560061  0.48921198  0.28802260     0.15700
C440        C  0.69814892  0.47076499  0.26856746    -0.28500
C441        C  0.66730616  0.53552605  0.19310408    -0.28800
N442        N  0.68479856  0.52683517  0.17471063     0.16200
H443        H  0.66138330  0.55635502  0.19502651     0.18800
C444        C  0.68942887  0.50022231  0.17984546    -0.28800
H445        H  0.70305945  0.48803091  0.16883662     0.18800
H446        H  0.71218451  0.45418468  0.26921608     0.18800
H447        H  0.58732089  0.48676634  0.24400767     0.18900
H448        H  0.66992900  0.52436722  0.29009109     0.18800
N449        N  0.40996305  0.14937742  0.77133422     0.01100
C450        C  0.39292663  0.13656273  0.78856569    -0.09700
C451        C  0.40454887  0.11439359  0.80249319    -0.05300
C452        C  0.43145768  0.11527230  0.79226255    -0.05900
C453        C  0.43385287  0.13700993  0.77233097    -0.09800
N454        N  0.67935081  0.11924382  0.74376709     0.01100
C455        C  0.69666303  0.10151932  0.75545489    -0.09700
C456        C  0.68396187  0.07790976  0.76335079    -0.05300
C457        C  0.65719297  0.08169253  0.75641257    -0.05900
C458        C  0.65515028  0.10724036  0.74389805    -0.09800
N459        N  0.66173149  0.86408713  0.73812243     0.01100
C460        C  0.64695439  0.85058802  0.72021739    -0.09700
C461        C  0.62066356  0.85913136  0.71966209    -0.05300
C462        C  0.61901024  0.87820782  0.73950772    -0.05900
C463        C  0.64515445  0.88092473  0.75022239    -0.09800
N464        N  0.38816638  0.86577806  0.73999253     0.01100
C465        C  0.36883525  0.87490879  0.75558156    -0.09700
C466        C  0.37695412  0.89786955  0.76772389    -0.05300
C467        C  0.40337839  0.90245765  0.76027526    -0.05900
C468        C  0.40959220  0.88206827  0.74272341    -0.09800
C469        C  0.54131828  0.80601919  0.65025933     0.32700
C470        C  0.49742018  0.79038493  0.62023671     0.32700
C471        C  0.54651431  0.80170672  0.62016957    -0.03500
C472        C  0.52826590  0.77862660  0.65893560    -0.04300
C473        C  0.51721360  0.82542114  0.64911965    -0.04200
C474        C  0.52381031  0.79445613  0.60515386    -0.03500
C475        C  0.50568812  0.77089200  0.64411510    -0.04300
C476        C  0.49448852  0.81731559  0.63447530    -0.04200
C477        C  0.53230944  0.78386414  0.58171968    -0.29600
N478        N  0.55928137  0.78346682  0.58194032     0.16900
C479        C  0.56829711  0.79301833  0.60564640    -0.29600
H480        H  0.58891035  0.79172564  0.61265522     0.18900
C481        C  0.49632055  0.74704292  0.65625695    -0.28600
N482        N  0.51308328  0.73941269  0.67706869     0.15700
C483        C  0.53282492  0.75848874  0.67846140    -0.28500
C484        C  0.47279947  0.82899475  0.64673136    -0.28800
N485        N  0.48183178  0.84511190  0.66642068     0.16200
H486        H  0.45192027  0.82379910  0.64347370     0.18800
C487        C  0.50874158  0.84304900  0.66789343    -0.28800
H488        H  0.52096281  0.85165030  0.68353719     0.18800
H489        H  0.54958031  0.75772197  0.69250202     0.18800
H490        H  0.51982785  0.77473662  0.56656412     0.18900
H491        H  0.47819675  0.73640917  0.65068182     0.18800
C492        C  0.34256254  0.03282963  0.87562135     0.32700
C493        C  0.31604754  0.99529052  0.91001090     0.32700
C494        C  0.34696563  0.03572240  0.90601010    -0.03500
C495        C  0.31148094  0.03241394  0.87306482    -0.04300
C496        C  0.34829969  0.00231467  0.87203093    -0.04200
C497        C  0.33442506  0.01616063  0.92291747    -0.03500
C498        C  0.29784903  0.01302643  0.89021887    -0.04300
C499        C  0.33519817  0.98314024  0.88969980    -0.04200
C500        C  0.33175170  0.02699198  0.94748163    -0.29600
N501        N  0.33949309  0.05316255  0.94601808     0.16900
C502        C  0.34896406  0.05869743  0.92100781    -0.29600
H503        H  0.35330593  0.07889797  0.91314701     0.18900
C504        C  0.27590762  0.00458501  0.87488188    -0.28600
N505        N  0.27466145  0.01834272  0.85063940     0.15700
C506        C  0.29637602  0.03502566  0.84953122    -0.28500
C507        C  0.33177289  0.95981243  0.87545915    -0.28800
N508        N  0.34185975  0.96382112  0.85050823     0.16200
H509        H  0.32026368  0.94218477  0.88193716     0.18800
C510        C  0.35062549  0.98959204  0.84810062    -0.28800
H511        H  0.35634298  0.99932312  0.82925582     0.18800
H512        H  0.30255821  0.04667411  0.83185954     0.18800
H513        H  0.32091471  0.01757441  0.96405743     0.18900
H514        H  0.26374189  0.98697241  0.87989025     0.18800
C515        C  0.74274276  0.00892363  0.84059159     0.32700
C516        C  0.75957372  0.96592173  0.87303402     0.32700
C517        C  0.72877597  0.98174269  0.83663050    -0.03500
C518        C  0.77287040  0.00164365  0.83847135    -0.04300
C519        C  0.74020809  0.01256323  0.87078793    -0.04200
C520        C  0.73753595  0.95959331  0.85197145    -0.03500
C521        C  0.78163997  0.97944533  0.85458715    -0.04300
C522        C  0.74793107  0.99039911  0.88695256    -0.04200
C523        C  0.72464659  0.93734902  0.84124258    -0.29600
N524        N  0.70709174  0.94601094  0.82129432     0.16900
C525        C  0.70936297  0.97330198  0.81916381    -0.29600
H526        H  0.69767015  0.98663947  0.80601611     0.18900
C527        C  0.80802235  0.97480403  0.84693031    -0.28600
N528        N  0.81590902  0.99419010  0.82813197     0.15700
C529        C  0.79450543  0.01091248  0.82363557    -0.28500
C530        C  0.75061196  0.99890990  0.91274584    -0.28800
N531        N  0.74658388  0.02589484  0.91276843     0.16200
H532        H  0.75662976  0.98641504  0.93005466     0.18800
C533        C  0.74114733  0.03461539  0.88704314    -0.28800
H534        H  0.73988354  0.05561741  0.88022225     0.18800
H535        H  0.79443075  0.02882437  0.81050537     0.18800
H536        H  0.72871478  0.91649512  0.84706985     0.18900
H537        H  0.82005066  0.95771003  0.85376258     0.18800
C538        C  0.50073201  0.19490160  0.68734734     0.32700
C539        C  0.53789440  0.21607096  0.65003670     0.32700
C540        C  0.49146166  0.19667521  0.65674255    -0.03500
C541        C  0.51090316  0.22503391  0.69129642    -0.04300
C542        C  0.52757852  0.18011711  0.68507286    -0.04200
C543        C  0.51064506  0.20779044  0.63919623    -0.03500
C544        C  0.53000599  0.23508694  0.67267226    -0.04300
C545        C  0.54609104  0.19062956  0.66653849    -0.04200
C546        C  0.50089527  0.20828923  0.61365295    -0.29600
N547        N  0.47634909  0.19686970  0.61314761     0.16900
C548        C  0.46988139  0.19029759  0.63944548    -0.29600
H549        H  0.45097460  0.18160960  0.64567415     0.18900
C550        C  0.53861858  0.26000813  0.68118682    -0.28600
N551        N  0.52435019  0.26730207  0.70282880     0.15700
C552        C  0.50739044  0.24600933  0.70909175    -0.28500
C553        C  0.56954327  0.17661451  0.67081980    -0.28800
N554        N  0.56553471  0.15755092  0.69060801     0.16200
H555        H  0.58870988  0.18127415  0.66177314     0.18800
C556        C  0.54019865  0.15963013  0.69967114    -0.28800
H557        H  0.53233213  0.14844890  0.71696851     0.18800
H558        H  0.49318436  0.24571351  0.72526206     0.18800
H559        H  0.51107724  0.21749367  0.59660479     0.18900
H560        H  0.55523543  0.27146892  0.67286628     0.18800
Zn561      Zn  0.81117963  0.79223584  0.77395665     1.49700
Zn562      Zn  0.84445134  0.80053140  0.82703674     1.49400
Zn563      Zn  0.87018792  0.81904260  0.77266486     1.49100
Zn564      Zn  0.82215281  0.85267909  0.79422795     1.49500
O565        O  0.83660913  0.81614746  0.79171785    -1.81500
O566        O  0.80312729  0.75740201  0.79713601    -0.72100
O567        O  0.88288178  0.79486507  0.83286716    -0.71900
O568        O  0.86545053  0.80424103  0.73653907    -0.71400
O569        O  0.82741679  0.76449133  0.83391538    -0.72100
O570        O  0.82532181  0.78400775  0.73679755    -0.71700
O571        O  0.89962104  0.79852602  0.79179091    -0.72300
O572        O  0.84791301  0.88173347  0.77976784    -0.71700
O573        O  0.83252799  0.82411050  0.85513017    -0.72400
O574        O  0.88330304  0.85770828  0.76878765    -0.71800
O575        O  0.81543008  0.86022073  0.83309582    -0.72300
O576        O  0.78614390  0.85546060  0.77553214    -0.72200
O577        O  0.77656619  0.81235007  0.76797952    -0.72000
C578        C  0.81144280  0.74987945  0.82066918     0.79800
C579        C  0.90201992  0.79272037  0.81674816     0.80300
C580        C  0.84712795  0.79072352  0.72507598     0.79200
C581        C  0.87199245  0.88036056  0.77168362     0.79600
C582        C  0.82104584  0.84687150  0.85479971     0.80800
C583        C  0.76983132  0.83715328  0.76821987     0.79800
Zn584      Zn  0.87241171  0.15780217  0.85093808     1.49700
Zn585      Zn  0.81584370  0.18182274  0.83940620     1.49400
Zn586      Zn  0.86484624  0.21360489  0.81207193     1.49100
Zn587      Zn  0.84783704  0.15947341  0.79197721     1.49500
O588        O  0.85053783  0.17845251  0.82420824    -1.81500
O589        O  0.85199103  0.14545466  0.88568320    -0.72100
O590        O  0.80867072  0.22015427  0.84488384    -0.71900
O591        O  0.90018481  0.21689409  0.82989541    -0.71400
O592        O  0.81264450  0.16404964  0.87612073    -0.72100
O593        O  0.90228091  0.18268746  0.86050517    -0.71700
O594        O  0.84297057  0.24309485  0.82732199    -0.72300
O595        O  0.85300116  0.18058243  0.75797518    -0.71700
O596        O  0.78834334  0.16507977  0.81633336    -0.72400
O597        O  0.86898359  0.21963078  0.77089564    -0.71800
O598        O  0.81340276  0.14226841  0.78858176    -0.72300
O599        O  0.87449125  0.13177602  0.79207791    -0.72200
O600        O  0.89042366  0.12604473  0.83360550    -0.72000
C601        C  0.82793689  0.15066956  0.89229555     0.79800
C602        C  0.82137448  0.24218040  0.84062582     0.80300
C603        C  0.91175034  0.20440526  0.84962376     0.79200
C604        C  0.86254256  0.20379283  0.75221768     0.79600
C605        C  0.79094055  0.14810306  0.79808670     0.80800
C606        C  0.88976910  0.11973964  0.80902239     0.79800
N607        N  0.91714147  0.00227986  0.77204106     0.01100
C608        C  0.92767421  0.98234126  0.75793345    -0.09700
C609        C  0.95059338  0.99136187  0.74387236    -0.05300
C610        C  0.95410744  0.01944958  0.74996534    -0.05900
C611        C  0.93293585  0.02429851  0.76749094    -0.09800
N612        N  0.03637632  0.22908500  0.87269182     0.01100
C613        C  0.01496534  0.23863930  0.88563776    -0.09700
C614        C  0.02273796  0.25276847  0.90831025    -0.05300
C615        C  0.05065865  0.25165236  0.90927354    -0.05900
C616        C  0.05789595  0.23706870  0.88721938    -0.09800
Zn617      Zn  0.24425628  0.21714834  0.80458967     1.49700
Zn618      Zn  0.19074405  0.18286108  0.81707934     1.49400
Zn619      Zn  0.24368579  0.15977526  0.83706913     1.49100
Zn620      Zn  0.22195495  0.21247974  0.86208512     1.49500
O621        O  0.22543458  0.19335504  0.82989013    -1.81500
O622        O  0.22298365  0.21919101  0.77090280    -0.72100
O623        O  0.18711047  0.14487035  0.80808828    -0.71900
O624        O  0.27764836  0.16167490  0.81898514    -0.71400
O625        O  0.18371235  0.20065531  0.78257526    -0.72100
O626        O  0.28016975  0.20158329  0.79670041    -0.71700
O627        O  0.22629021  0.12787770  0.82130004    -0.72300
O628        O  0.24226140  0.19427779  0.89101116    -0.71700
O629        O  0.16240948  0.19201261  0.84141095    -0.72400
O630        O  0.25145684  0.15360368  0.87590023    -0.71800
O631        O  0.18415169  0.21495769  0.87256364    -0.72300
O632        O  0.23475494  0.25007878  0.85917949    -0.72200
O633        O  0.24851740  0.25547543  0.81726595    -0.72000
C634        C  0.19889779  0.21249367  0.76572794     0.79800
C635        C  0.20367904  0.12569672  0.80972222     0.80300
C636        C  0.28979142  0.17858903  0.80377589     0.79200
C637        C  0.25160946  0.17062615  0.89429870     0.79600
C638        C  0.16274168  0.20584800  0.86221765     0.80800
C639        C  0.24404017  0.26488283  0.84016835     0.79800
N640        N  0.19638808  0.00707962  0.76513656     0.01100
C641        C  0.18432289  0.98547374  0.75415353    -0.09700
C642        C  0.16147684  0.99250108  0.73901407    -0.05300
C643        C  0.16008092  0.02017847  0.74101763    -0.05900
C644        C  0.18122913  0.02835845  0.75725788    -0.09800
Zn645      Zn  0.19868501  0.78653390  0.81777146     1.49700
Zn646      Zn  0.19535048  0.84326700  0.84434321     1.49400
Zn647      Zn  0.24896040  0.81432592  0.84532618     1.49100
Zn648      Zn  0.22397941  0.83151171  0.79201610     1.49500
O649        O  0.21628619  0.81856476  0.82637688    -1.81500
O650        O  0.16424706  0.78841220  0.83417255    -0.72100
O651        O  0.21217760  0.85584719  0.87773906    -0.71900
O652        O  0.24715900  0.77770117  0.86109879    -0.71400
O653        O  0.15944028  0.82866737  0.85173632    -0.72100
O654        O  0.21669801  0.75634573  0.83634093    -0.71700
O655        O  0.25340940  0.84015778  0.87544054    -0.72300
O656        O  0.25733199  0.81640563  0.78063400    -0.71700
O657        O  0.19277168  0.87472072  0.82050223    -0.72400
O658        O  0.27892040  0.81922966  0.81971912    -0.71800
O659        O  0.22691061  0.87021239  0.79293379    -0.72300
O660        O  0.19678092  0.82384565  0.76421967    -0.72200
O661        O  0.18953897  0.78170040  0.77851055    -0.72000
C662        C  0.15044443  0.80557361  0.84595775     0.79800
C663        C  0.23605303  0.85439563  0.88678224     0.80300
C664        C  0.23373339  0.75668752  0.85554585     0.79200
C665        C  0.27873401  0.81896982  0.79417871     0.79600
C666        C  0.20819129  0.88399844  0.80230514     0.80800
C667        C  0.18699160  0.80062395  0.76058821     0.79800
N668        N  0.02405875  0.77812289  0.85260315     0.01100
C669        C  0.04524746  0.77060793  0.86805202    -0.09700
C670        C  0.03855912  0.75057842  0.88689226    -0.05300
C671        C  0.01131601  0.74640502  0.88321554    -0.05900
C672        C  0.00319699  0.76371277  0.86208349    -0.09800
N673        N  0.24524308  0.88169838  0.00973151     0.01100
C674        C  0.25564509  0.89792432  0.98966623    -0.09700
C675        C  0.26726381  0.92209246  0.99890365    -0.05300
C676        C  0.26308362  0.91984088  0.02767609    -0.05900
C677        C  0.25001674  0.89469194  0.03269791    -0.09800
Zn678      Zn  0.21824749  0.83624485  0.19342520     1.49700
Zn679      Zn  0.20153325  0.78472668  0.15817864     1.49400
Zn680      Zn  0.22125061  0.77633447  0.21645350     1.49100
Zn681      Zn  0.16507204  0.80316180  0.20798029     1.49500
O682        O  0.20097193  0.80075391  0.19341570    -1.81500
O683        O  0.22381214  0.84883228  0.15463413    -0.72100
O684        O  0.21880537  0.74653196  0.15955261    -0.71900
O685        O  0.25870717  0.78857052  0.22078295    -0.71400
O686        O  0.21908587  0.81150752  0.13118102    -0.72100
O687        O  0.25599163  0.83274511  0.21061188    -0.71700
O688        O  0.22174255  0.73907124  0.20366610    -0.72300
O689        O  0.16371492  0.78493637  0.24554153    -0.71700
O690        O  0.16294923  0.77910141  0.14620353    -0.72400
O691        O  0.20633027  0.77307687  0.25228687    -0.71800
O692        O  0.13829152  0.78669428  0.18220437    -0.72300
O693        O  0.15493917  0.84249390  0.21235651    -0.72200
O694        O  0.19406170  0.86442861  0.21086924    -0.72000
C695        C  0.22485785  0.83666148  0.13257353     0.79800
C696        C  0.22292430  0.73061651  0.18007376     0.80300
C697        C  0.26925807  0.81192406  0.21894568     0.79200
C698        C  0.18266587  0.77545824  0.26055965     0.79600
C699        C  0.14044433  0.77955548  0.15800035     0.80800
C700        C  0.16874313  0.86406087  0.21486537     0.79800
N701        N  0.01926508  0.76495539  0.11180240     0.01100
C702        C  0.99930038  0.75682694  0.09517356    -0.09700
C703        C  0.00832391  0.74224242  0.07343987    -0.05300
C704        C  0.03722869  0.74193519  0.07781560    -0.05900
C705        C  0.04205185  0.75575465  0.10155975    -0.09800
Zn706      Zn  0.83454630  0.80671024  0.20733752     1.49700
Zn707      Zn  0.85438350  0.76473343  0.17139868     1.49400
Zn708      Zn  0.80715306  0.80291970  0.15698577     1.49100
Zn709      Zn  0.86318900  0.82509298  0.15173176     1.49500
O710        O  0.84140349  0.79990647  0.17142190    -1.81500
O711        O  0.85394020  0.78238943  0.23328775    -0.72100
O712        O  0.82293285  0.74051255  0.16808625    -0.71900
O713        O  0.78665593  0.83000296  0.17485537    -0.71400
O714        O  0.87465406  0.75579890  0.20564288    -0.72100
O715        O  0.79593053  0.81305172  0.21557710    -0.71700
O716        O  0.78859133  0.76867356  0.16151192    -0.72300
O717        O  0.84398905  0.83900666  0.11824577    -0.71700
O718        O  0.87996301  0.76224984  0.14171025    -1.01200
O719        O  0.80753481  0.81337231  0.11936642    -0.71800
O720        O  0.89447456  0.80507871  0.13877856    -0.72300
O721        O  0.87252617  0.85588856  0.17513661    -0.72200
O722        O  0.85036358  0.84133800  0.21128806    -0.72000
C723        C  0.87131827  0.76446813  0.22903384     0.79800
C724        C  0.79793657  0.74504233  0.16485685     0.80300
C725        C  0.78136602  0.82753751  0.19956884     0.79200
C726        C  0.82257068  0.83034453  0.10725851     0.79600
C727        C  0.89671514  0.78017702  0.13359603     0.80800
C728        C  0.86418537  0.85911317  0.19883737     0.79800
N729        N  0.79939179  0.85755543  0.98244776     0.01100
C730        C  0.78860476  0.86978722  0.00357682    -0.09700
C731        C  0.77474111  0.89359112  0.99597974    -0.05300
C732        C  0.77834219  0.89590736  0.96792706    -0.05900
C733        C  0.79280363  0.87334078  0.96083686    -0.09800
Zn734      Zn  0.22275260  0.18456479  0.19615465     1.49700
Zn735      Zn  0.16783832  0.20007792  0.21952646     1.49400
Zn736      Zn  0.16896680  0.15509384  0.17789287     1.49100
Zn737      Zn  0.19613213  0.14534915  0.23299700     1.49500
O738        O  0.18853763  0.17168507  0.20622422    -1.81500
O739        O  0.22126885  0.22414841  0.18876922    -0.72100
O740        O  0.13150097  0.19988152  0.20269490    -0.71900
O741        O  0.19357071  0.14730956  0.14800794    -0.71400
O742        O  0.18230876  0.23571474  0.20606688    -0.72100
O743        O  0.22962569  0.16988323  0.16139336    -0.71700
O744        O  0.14009469  0.17982978  0.16465224    -0.72300
O745        O  0.17073442  0.11578397  0.23143811    -0.71700
O746        O  0.16592158  0.19587828  0.25949357    -0.72400
O747        O  0.15029705  0.12156057  0.19188199    -0.71800
O748        O  0.19088248  0.15942109  0.26821210    -0.72300
O749        O  0.23271000  0.13172441  0.23106612    -0.72200
O750        O  0.25323217  0.17013450  0.21957031    -0.72000
C751        C  0.20293233  0.24137761  0.19221165     0.79800
C752        C  0.12526615  0.19442266  0.17863899     0.80300
C753        C  0.21748373  0.15567652  0.14441451     0.79200
C754        C  0.15319407  0.10886631  0.21442526     0.79600
C755        C  0.17654577  0.17853050  0.27596618     0.80800
C756        C  0.25401593  0.14558487  0.22837196     0.79800
N757        N  0.00190921  0.21781854  0.15447020     0.01100
C758        C  0.02261535  0.22958210  0.14117930    -0.09700
C759        C  0.01388099  0.24395580  0.11817918    -0.05300
C760        C  0.98617640  0.24040911  0.11767000    -0.05900
C761        C  0.97963011  0.22444064  0.14017052    -0.09800
N762        N  0.12635499  0.98651551  0.23406327     0.01100
C763        C  0.10961686  0.00643647  0.24164950    -0.09700
C764        C  0.08646209  0.99683499  0.25510011    -0.05300
C765        C  0.08977763  0.96780377  0.25438865    -0.05900
C766        C  0.11446688  0.96305565  0.24178368    -0.09800
N767        N  0.26434003  0.16095490  0.02190860     0.01100
C768        C  0.27115125  0.14732125  0.04496029    -0.09700
C769        C  0.29166468  0.12918438  0.04083988    -0.05300
C770        C  0.29786311  0.13216123  0.01403775    -0.05900
C771        C  0.28056136  0.15157535  0.00310468    -0.09800
N772        N  0.85709499  0.98227644  0.24516147     0.01100
C773        C  0.86856896  0.95847240  0.25125519    -0.09700
C774        C  0.88581145  0.95985057  0.27304040    -0.05300
C775        C  0.88423568  0.98625319  0.28196123    -0.05900
C776        C  0.86612978  0.99932686  0.26370375    -0.09800
Zn777      Zn  0.78785665  0.19397331  0.22564317     1.49700
Zn778      Zn  0.84450547  0.16507560  0.22121537     1.49400
Zn779      Zn  0.79245455  0.13759958  0.20202585     1.49100
Zn780      Zn  0.81562567  0.18977111  0.17086472     1.49500
O781        O  0.81030663  0.17162080  0.20476753    -1.81500
O782        O  0.80115451  0.19361300  0.26285810    -0.72100
O783        O  0.85167927  0.12600934  0.22946331    -0.71900
O784        O  0.75549237  0.13875963  0.21533056    -0.71400
O785        O  0.84315268  0.18011316  0.25634854    -0.72100
O786        O  0.75007369  0.18143708  0.22604183    -0.71700
O787        O  0.81151216  0.10814570  0.22222964    -0.72300
O788        O  0.79842643  0.16860780  0.14326856    -0.71700
O789        O  0.87481737  0.18185585  0.20053484    -0.72400
O790        O  0.78880829  0.12889969  0.16400166    -0.71800
O791        O  0.85450709  0.19514586  0.16227553    -0.72300
O792        O  0.79993211  0.22626930  0.16954012    -0.72200
O793        O  0.78785355  0.23190755  0.21163064    -0.72000
C794        C  0.82489168  0.18890521  0.27102217     0.79800
C795        C  0.83547111  0.10613811  0.23100790     0.80300
C796        C  0.74089414  0.15781730  0.22288860     0.79200
C797        C  0.79001907  0.14438611  0.14314257     0.79600
C798        C  0.87551577  0.19223230  0.17681243     0.80800
C799        C  0.79143338  0.24101197  0.18778244     0.79800
N800        N  0.78214486  0.13193259  0.01698940     0.01100
C801        C  0.78063011  0.11695057  0.99501233    -0.09700
C802        C  0.76530938  0.09370767  0.00096084    -0.05300
C803        C  0.75741109  0.09462361  0.02784996    -0.05900
C804        C  0.76836335  0.11848439  0.03645689    -0.09800
N805        N  0.18709602  0.71867334  0.38397919     0.01100
C806        C  0.17218722  0.73671950  0.36937603    -0.09700
C807        C  0.14942680  0.74331646  0.38285245    -0.05300
C808        C  0.15077350  0.72848054  0.40751811    -0.05900
C809        C  0.17476074  0.71337194  0.40770217    -0.09800
N810        N  0.15218063  0.75120058  0.65008467     0.01100
C811        C  0.13816305  0.77068103  0.66176918    -0.09700
C812        C  0.11229376  0.77144622  0.65170992    -0.05300
C813        C  0.11046780  0.75043069  0.63385707    -0.05900
C814        C  0.13608500  0.73893021  0.63238672    -0.09800
N815        N  0.87243040  0.76373303  0.61795349     0.01100
C816        C  0.85783972  0.74578272  0.60375505    -0.09700
C817        C  0.87154534  0.73738709  0.58170657    -0.05300
C818        C  0.89717042  0.74978777  0.58411846    -0.05900
C819        C  0.89660102  0.76723532  0.60618440    -0.09800
N820        N  0.90894107  0.70522882  0.33740991     0.01100
C821        C  0.92577603  0.72022677  0.32205511    -0.09700
C822        C  0.94999553  0.72402873  0.33539163    -0.05300
C823        C  0.94722102  0.71006523  0.36024876    -0.05900
C824        C  0.92164005  0.69894949  0.36067047    -0.09800
C825        C  0.81158068  0.60436059  0.48328738     0.32700
C826        C  0.83040241  0.64502759  0.51646607     0.32700
C827        C  0.83437382  0.62272548  0.47207537    -0.03500
C828        C  0.79084987  0.62633119  0.49093226    -0.04300
C829        C  0.82323029  0.59522371  0.51088572    -0.04200
C830        C  0.84394658  0.64275066  0.48895028    -0.03500
C831        C  0.80039639  0.64632543  0.50798983    -0.04300
C832        C  0.83198076  0.61555856  0.52823358    -0.04200
C833        C  0.86175441  0.65857661  0.47433758    -0.29600
N834        N  0.86288556  0.64965923  0.44889407     0.16900
C835        C  0.84577867  0.62815641  0.44725666    -0.29600
H836        H  0.84078368  0.61809148  0.42895480     0.18900
C837        C  0.77954874  0.66388783  0.51176375    -0.28600
N838        N  0.75782428  0.65662669  0.49662338     0.15700
C839        C  0.76487845  0.63394549  0.48355736    -0.28500
C840        C  0.82752814  0.60460615  0.55394993    -0.28800
N841        N  0.81973457  0.57847723  0.55252678     0.16200
H842        H  0.82683520  0.61561720  0.57223893     0.18800
C843        C  0.81650251  0.57276228  0.52653014    -0.28800
H844        H  0.80689235  0.55456725  0.51967561     0.18800
H845        H  0.75258408  0.62420628  0.46870361     0.18800
H846        H  0.87249746  0.67586199  0.48168825     0.18900
H847        H  0.78046226  0.68072715  0.52487342     0.18800
C848        C  0.00696606  0.81766623  0.28909807     0.32700
C849        C  0.03947647  0.86071030  0.27339055     0.32700
C850        C  0.03480511  0.81862463  0.30203105    -0.03500
C851        C  0.01316582  0.82005409  0.25876889    -0.04300
C852        C  0.99578020  0.84586032  0.29384589    -0.04200
C853        C  0.05190432  0.83973343  0.29429294    -0.03500
C854        C  0.02997761  0.84156704  0.25032275    -0.04300
C855        C  0.01261584  0.86751585  0.28644514    -0.04200
C856        C  0.07659309  0.83332253  0.30677802    -0.29600
N857        N  0.07386254  0.80987369  0.32205950     0.16900
C858        C  0.04840394  0.80103635  0.31913875    -0.29600
H859        H  0.04062212  0.78235486  0.32811248     0.18900
C860        C  0.03393968  0.83789440  0.22282950    -0.28600
N861        N  0.01956851  0.81581202  0.21469976     0.15700
C862        C  0.00644859  0.80550397  0.23656631    -0.28500
C863        C  0.99662171  0.88998478  0.28282338    -0.28800
N864        N  0.97072071  0.88288213  0.28674207     0.16200
H865        H  0.00325325  0.90986437  0.27586898     0.18800
C866        C  0.96985743  0.85589613  0.29257636    -0.28800
H867        H  0.95161460  0.84395207  0.29350811     0.18800
H868        H  0.99293374  0.78833052  0.23638826     0.18800
H869        H  0.09531331  0.84417109  0.30402146     0.18900
H870        H  0.04716874  0.84980172  0.20998162     0.18800
C871        C  0.00526750  0.89621352  0.70108410     0.32700
C872        C  0.04045483  0.85780802  0.68416171     0.32700
C873        C  0.03352036  0.90656813  0.69178748    -0.03500
C874        C  0.01285881  0.87332208  0.72197657    -0.04300
C875        C  0.99481023  0.87877843  0.67687709    -0.04200
C876        C  0.05173493  0.88691642  0.68430992    -0.03500
C877        C  0.03093024  0.85426426  0.71323733    -0.04300
C878        C  0.01381625  0.86035617  0.66801247    -0.04200
C879        C  0.07709874  0.89658842  0.69180296    -0.29600
N880        N  0.07543578  0.92216526  0.70067381     0.16900
C881        C  0.04890116  0.92825370  0.70047299    -0.29600
H882        H  0.04089577  0.94676294  0.70771761     0.18900
C883        C  0.03622106  0.83638478  0.73438635    -0.28600
N884        N  0.02125081  0.84307453  0.75550988     0.15700
C885        C  0.00687148  0.86561011  0.74833938    -0.28500
C886        C  0.00060435  0.84080619  0.65370922    -0.28800
N887        N  0.97368276  0.84409280  0.65449967     0.16200
H888        H  0.01040381  0.82404787  0.64478355     0.18800
C889        C  0.96991114  0.86672962  0.66933831    -0.28800
H890        H  0.95052126  0.87296711  0.67620025     0.18800
H891        H  0.99287779  0.87534685  0.76117700     0.18800
H892        H  0.09513926  0.88456187  0.69319080     0.18900
H893        H  0.05000824  0.81957420  0.73456468     0.18800
C894        C  0.21966441  0.64349395  0.49773940     0.32700
C895        C  0.23586062  0.61138900  0.54156230     0.32700
C896        C  0.22236811  0.61267508  0.49306764    -0.03500
C897        C  0.24744399  0.65081482  0.51078766    -0.04300
C898        C  0.20151179  0.64423880  0.52296113    -0.04200
C899        C  0.22993985  0.59701065  0.51550403    -0.03500
C900        C  0.25583725  0.63381596  0.53247880    -0.04300
C901        C  0.21002948  0.62826560  0.54558104    -0.04200
C902        C  0.23458401  0.57109165  0.50762590    -0.29600
N903        N  0.23103780  0.57002557  0.48075854     0.16900
C904        C  0.22351825  0.59537464  0.47142711    -0.29600
H905        H  0.22090712  0.60131293  0.45041476     0.18900
C906        C  0.27932667  0.64455580  0.54291047    -0.28600
N907        N  0.28524153  0.66793417  0.52897028     0.15700
C908        C  0.26533221  0.67260920  0.51046465    -0.28500
C909        C  0.20123454  0.64191090  0.56780334    -0.28800
N910        N  0.18587728  0.66371508  0.56009036     0.16200
H911        H  0.20805578  0.63755062  0.58820832     0.18800
C912        C  0.18683893  0.66550742  0.53271393    -0.28800
H913        H  0.17882977  0.68194038  0.52020904     0.18800
H914        H  0.26380111  0.69123528  0.49852020     0.18800
H915        H  0.24177375  0.55435208  0.52035078     0.18900
H916        H  0.29085523  0.63641143  0.55991621     0.18800
N917        N  0.38549208  0.25509607  0.50225598     0.01100
C918        C  0.39814017  0.24550982  0.52475044    -0.09700
C919        C  0.41767169  0.22638675  0.51865745    -0.05300
C920        C  0.41827095  0.22608990  0.49021407    -0.05900
C921        C  0.39772905  0.24362998  0.48149462    -0.09800
N922        N  0.28263250  0.46380427  0.38325769     0.01100
C923        C  0.27860269  0.48510455  0.39873657    -0.09700
C924        C  0.26331721  0.47803729  0.42109495    -0.05300
C925        C  0.25870192  0.45017029  0.41958239    -0.05900
C926        C  0.27067031  0.44247801  0.39590749    -0.09800
N927        N  0.49931359  0.34770979  0.29195183     0.01100
C928        C  0.52085064  0.36412011  0.28876775    -0.09700
C929        C  0.51316622  0.38796895  0.27450831    -0.05300
C930        C  0.48572343  0.38584406  0.26857667    -0.05900
C931        C  0.47856354  0.36093160  0.27981171    -0.09800
Zn932      Zn  0.31159964  0.28465359  0.35288094     1.49700
Zn933      Zn  0.31747505  0.31888395  0.30094595     1.49400
Zn934      Zn  0.35703486  0.26924576  0.31490303     1.49100
Zn935      Zn  0.29775833  0.25895700  0.29625596     1.49500
O936        O  0.32093316  0.28277704  0.31601024    -1.81500
O937        O  0.29799349  0.32026109  0.36315391    -0.72100
O938        O  0.35308364  0.33218495  0.29061153    -0.71900
O939        O  0.37484172  0.26487937  0.35145336    -0.71400
O940        O  0.30146314  0.34494219  0.32535481    -0.72100
O941        O  0.34125560  0.27594843  0.37742316    -0.71700
O942        O  0.37813138  0.29483542  0.29329601    -0.72300
O943        O  0.31648685  0.22381326  0.28968102    -0.71700
O944        O  0.29495127  0.31987495  0.26853259    -0.72400
O945        O  0.35897398  0.23302239  0.29995011    -0.71800
O946        O  0.28341391  0.27723820  0.26146929    -0.72300
O947        O  0.26763722  0.24847512  0.32007651    -0.72200
O948        O  0.28361615  0.25855424  0.36057025    -0.72000
C949        C  0.29508333  0.34243006  0.34985844     0.79800
C950        C  0.37489521  0.31977876  0.28732267     0.80300
C951        C  0.36505962  0.26818636  0.37444692     0.79200
C952        C  0.34094699  0.21681676  0.29223745     0.79600
C953        C  0.28329282  0.30236210  0.25458645     0.80800
C954        C  0.26639810  0.24752436  0.34559545     0.79800
Zn955      Zn  0.71401925  0.28022599  0.32456099     1.49700
Zn956      Zn  0.65855329  0.28838983  0.35552457     1.49400
Zn957      Zn  0.71566461  0.30595855  0.38114945     1.49100
Zn958      Zn  0.68720707  0.33910771  0.33176002     1.49500
O959        O  0.69405426  0.30330491  0.34823475    -1.81500
O960        O  0.69194253  0.24794762  0.31526526    -0.72100
O961        O  0.65448541  0.28105147  0.39472454    -0.71900
O962        O  0.75014082  0.28423601  0.38127477    -0.71400
O963        O  0.65332650  0.25455588  0.33583758    -0.72100
O964        O  0.74984148  0.26716458  0.34074618    -0.71700
O965        O  0.69382493  0.29299468  0.41267174    -0.72300
O966        O  0.70303355  0.36784800  0.35441689    -0.71700
O967        O  0.62769081  0.31195854  0.34276393    -0.72400
O968        O  0.72646210  0.34472458  0.38605782    -0.71800
O969        O  0.64798337  0.34709095  0.32295361    -0.72300
O970        O  0.70497484  0.34187289  0.29661895    -0.72200
O971        O  0.72067823  0.30069978  0.28963104    -0.72000
C972        C  0.66790523  0.24115115  0.32053786     0.79800
C973        C  0.66997387  0.28391497  0.41492655     0.80300
C974        C  0.76111065  0.27036401  0.36354371     0.79200
C975        C  0.71924543  0.36692755  0.37440746     0.79600
C976        C  0.62669058  0.33410591  0.32900852     0.80800
C977        C  0.71630207  0.32512544  0.28190521     0.79800
Zn978      Zn  0.33582116  0.64301408  0.38440929     1.49700
Zn979      Zn  0.33449895  0.66960249  0.32815880     1.49400
Zn980      Zn  0.38958446  0.66543283  0.35852799     1.49100
Zn981      Zn  0.36189089  0.61278346  0.33648473     1.49500
O982        O  0.35582459  0.64729868  0.35203070    -1.81500
O983        O  0.29875330  0.65779322  0.38098149    -0.72100
O984        O  0.35390279  0.70017599  0.31369618    -0.71900
O985        O  0.39465247  0.67327829  0.39725435    -0.71400
O986        O  0.30205199  0.68373807  0.34395502    -0.72100
O987        O  0.35392390  0.66326503  0.41277019    -0.71700
O988        O  0.39054164  0.70151749  0.33943050    -0.72300
O989        O  0.40032341  0.60870561  0.32642633    -0.71700
O990        O  0.32243408  0.65037557  0.29747684    -0.72400
O991        O  0.41974375  0.64549184  0.34257697    -0.71800
O992        O  0.33970376  0.60923003  0.30281072    -0.72300
O993        O  0.34973384  0.58308296  0.36131155    -0.72200
O994        O  0.33053007  0.60467684  0.39441918    -0.72000
C995        C  0.28916185  0.67528257  0.36427208     0.79800
C996        C  0.37538658  0.71144148  0.32095547     0.80300
C997        C  0.37692067  0.67412020  0.41529457     0.79200
C998        C  0.42068262  0.62390772  0.32961036     0.79600
C999        C  0.32552235  0.62665117  0.28976694     0.80800
C1000       C  0.33598484  0.58323785  0.38256410     0.79800
Zn1001     Zn  0.37181551  0.31104360  0.72691169     1.49700
Zn1002     Zn  0.34585519  0.28043643  0.67765055     1.49400
Zn1003     Zn  0.32051918  0.33279896  0.69530733     1.49100
Zn1004     Zn  0.37866646  0.33793039  0.66734501     1.49500
O1005       O  0.35478848  0.31572559  0.69149883    -1.81500
O1006       O  0.38041525  0.27181681  0.73507345    -0.72100
O1007       O  0.30583800  0.27262119  0.67228842    -0.71900
O1008       O  0.31517278  0.34356494  0.73251779    -0.71400
O1009       O  0.36224320  0.25072410  0.70072352    -0.72100
O1010       O  0.34938652  0.32611212  0.75604092    -0.71700
O1011       O  0.28847251  0.31133264  0.68346816    -0.72300
O1012       O  0.35915086  0.37308109  0.65473905    -0.71700
O1013       O  0.36192083  0.27877984  0.64188938    -0.72400
O1014       O  0.32006148  0.36691199  0.67451865    -0.71800
O1015       O  0.38704128  0.31560017  0.63396776    -0.72300
O1016       O  0.41291207  0.35060883  0.68817401    -0.72200
O1017       O  0.40588186  0.33259220  0.72889507    -0.72000
C1018       C  0.37554888  0.25021979  0.72272326     0.79800
C1019       C  0.28549606  0.28767438  0.67485569     0.80300
C1020       C  0.32799898  0.34000686  0.75452976     0.79200
C1021       C  0.33565037  0.38132898  0.66006613     0.79600
C1022       C  0.37743624  0.29282768  0.62682367     0.80800
C1023       C  0.41983439  0.34745703  0.71298969     0.79800
N1024       N  0.54104663  0.61912603  0.28180187     0.01100
C1025       C  0.52033993  0.60170876  0.27983292    -0.09700
C1026       C  0.52803142  0.57864495  0.26686544    -0.05300
C1027       C  0.55521864  0.58202004  0.26111466    -0.05900
C1028       C  0.56204173  0.60713449  0.27058301    -0.09800
N1029       N  0.65685432  0.71344453  0.48927790     0.01100
C1030       C  0.64584939  0.72585365  0.46712390    -0.09700
C1031       C  0.62180348  0.73851256  0.47265083    -0.05300
C1032       C  0.61856657  0.73411477  0.50026947    -0.05900
C1033       C  0.64029444  0.71853548  0.50950972    -0.09800
N1034       N  0.75621012  0.49177721  0.38776749     0.01100
C1035       C  0.76185325  0.46969658  0.40356041    -0.09700
C1036       C  0.77506001  0.47641983  0.42746561    -0.05300
C1037       C  0.77723786  0.50553009  0.42596873    -0.05900
C1038       C  0.76544711  0.51331919  0.40100038    -0.09800
Zn1039     Zn  0.74004621  0.71337251  0.32826467     1.49700
Zn1040     Zn  0.75389980  0.65682548  0.30000917     1.49400
Zn1041     Zn  0.70672073  0.65975569  0.33424746     1.49100
Zn1042     Zn  0.70538771  0.69296864  0.28112354     1.49500
O1043       O  0.72741077  0.68154821  0.31096085    -1.81500
O1044       O  0.78035597  0.71032820  0.32973860    -0.72100
O1045       O  0.75776938  0.62298307  0.32457014    -0.71900
O1046       O  0.69251929  0.68246502  0.36062438    -0.71400
O1047       O  0.78855198  0.67608302  0.30314769    -0.72100
O1048       O  0.72218772  0.71570495  0.36437086    -0.71700
O1049       O  0.72598596  0.63003421  0.35354295    -0.72300
O1050       O  0.67041015  0.67437132  0.28167580    -0.71700
O1051       O  0.74451367  0.64582233  0.26251559    -0.72400
O1052       O  0.67661677  0.64391943  0.31495221    -0.71800
O1053       O  0.72042853  0.68104401  0.24766045    -0.72300
O1054       O  0.69917664  0.73235879  0.27857791    -0.72200
O1055       O  0.72796136  0.74825749  0.30840161    -0.72000
C1056       C  0.79664445  0.69522582  0.31766761     0.79800
C1057       C  0.74546889  0.61609535  0.34600470     0.80300
C1058       C  0.70101556  0.70323534  0.37209438     0.79200
C1059       C  0.66305992  0.65338382  0.29507298     0.79600
C1060       C  0.73142112  0.65850452  0.24383382     0.80800
C1061       C  0.71006588  0.75210701  0.29009980     0.79800
N1062       N  0.64351635  0.27113332  0.54164188     0.01100
C1063       C  0.63139152  0.25917087  0.52077278    -0.09700
C1064       C  0.60865321  0.24434904  0.52877758    -0.05300
C1065       C  0.60626641  0.24820728  0.55665612    -0.05900
C1066       C  0.62858017  0.26412721  0.56338936    -0.09800
N1067       N  0.76479840  0.48918806  0.67405759     0.01100
C1068       C  0.77085259  0.51160835  0.65909533    -0.09700
C1069       C  0.78548231  0.50551681  0.63696665    -0.05300
C1070       C  0.78793356  0.47787784  0.63781060    -0.05900
C1071       C  0.77491934  0.46831160  0.66084106    -0.09800
N1072       N  0.53896579  0.36977247  0.75500676     0.01100
C1073       C  0.51964592  0.38834937  0.75703569    -0.09700
C1074       C  0.52982956  0.41075651  0.77053604    -0.05300
C1075       C  0.55720418  0.40641198  0.77627851    -0.05900
C1076       C  0.56124507  0.38067111  0.76643357    -0.09800
Zn1077     Zn  0.72186317  0.30671567  0.68487957     1.49700
Zn1078     Zn  0.71339547  0.33143657  0.73681994     1.49400
Zn1079     Zn  0.68113044  0.28140137  0.72502142     1.49100
Zn1080     Zn  0.74307358  0.27798175  0.73838263     1.49500
O1081       O  0.71512153  0.29833721  0.72123933    -1.81500
O1082       O  0.73657978  0.34365225  0.67808934    -0.72100
O1083       O  0.67678270  0.34203600  0.73765822    -0.71900
O1084       O  0.66225414  0.27930352  0.68926713    -0.71400
O1085       O  0.73426778  0.35998246  0.71858614    -0.72100
O1086       O  0.69013799  0.30197372  0.66209896    -0.71700
O1087       O  0.65823855  0.30218697  0.74845281    -0.72300
O1088       O  0.73004754  0.23968851  0.74319126    -0.71700
O1089       O  0.72532348  0.32873723  0.77345896    -0.72400
O1090       O  0.68566136  0.24416068  0.73854335    -0.71800
O1091       O  0.75310233  0.29365505  0.77450042    -0.72300
O1092       O  0.77302212  0.27734459  0.71233822    -0.72200
O1093       O  0.74920619  0.28203494  0.67404944    -0.72000
C1094       C  0.74105259  0.36236198  0.69424924     0.79800
C1095       C  0.65739900  0.32781535  0.74641163     0.80300
C1096       C  0.66842193  0.28918959  0.66621921     0.79200
C1097       C  0.70640470  0.22986588  0.74277790     0.79600
C1098       C  0.74226931  0.31363798  0.78550826     0.80800
C1099       C  0.77055676  0.27585274  0.68691066     0.79800
N1100       N  0.30006391  0.50979533  0.64898407     0.01100
C1101       C  0.29708338  0.48893001  0.63262852    -0.09700
C1102       C  0.27917087  0.49563268  0.61167724    -0.05300
C1103       C  0.27147590  0.52245337  0.61517076    -0.05900
C1104       C  0.28447280  0.52990835  0.63858805    -0.09800
N1105       N  0.50800475  0.64356834  0.74586646     0.01100
C1106       C  0.52987419  0.62918335  0.75348190    -0.09700
C1107       C  0.52279263  0.60716511  0.77029519    -0.05300
C1108       C  0.49495016  0.60790553  0.77268298    -0.05900
C1109       C  0.48707577  0.63070883  0.75764633    -0.09800
N1110       N  0.38123095  0.73253611  0.52824578     0.01100
C1111       C  0.39471169  0.73937458  0.50572990    -0.09700
C1112       C  0.41679361  0.75570243  0.51146702    -0.05300
C1113       C  0.41778873  0.75737198  0.53945384    -0.05900
C1114       C  0.39544826  0.74302713  0.54860159    -0.09800
Zn1115     Zn  0.28631076  0.67699960  0.72212021     1.49700
Zn1116     Zn  0.31287425  0.72748138  0.69021490     1.49400
Zn1117     Zn  0.33747979  0.70677412  0.74581168     1.49100
Zn1118     Zn  0.34129256  0.67413452  0.69396694     1.49500
O1119       O  0.31897034  0.69650394  0.71364703    -1.81500
O1120       O  0.25563432  0.69887132  0.70750497    -0.72100
O1121       O  0.33113344  0.75953148  0.70393195    -0.71900
O1122       O  0.31498728  0.69815956  0.77807546    -0.71400
O1123       O  0.27440347  0.73325152  0.68429634    -0.72100
O1124       O  0.28342042  0.67076536  0.76239062    -0.71700
O1125       O  0.35060260  0.74530242  0.74215639    -0.72300
O1126       O  0.36951394  0.65880548  0.71642767    -0.71700
O1127       O  0.32983425  0.72526253  0.65474717    -0.72400
O1128       O  0.37045183  0.68469878  0.75152368    -0.71800
O1129       O  0.35961065  0.69326765  0.66395239    -0.72300
O1130       O  0.32101341  0.64435449  0.67952848    -0.72200
O1131       O  0.28378013  0.64155368  0.70300203    -0.72000
C1132       C  0.25391466  0.71990177  0.69199401     0.79800
C1133       C  0.34687552  0.76345403  0.72362872     0.80300
C1134       C  0.29577356  0.68139408  0.78200137     0.79200
C1135       C  0.38032587  0.66599626  0.73811131     0.79600
C1136       C  0.35097860  0.71275047  0.64910275     0.80800
C1137       C  0.29913688  0.63256149  0.68525557     0.79800
Zn1138     Zn  0.73572011  0.66602737  0.69538888     1.49700
Zn1139     Zn  0.70593270  0.70834802  0.66177410     1.49400
Zn1140     Zn  0.67650360  0.65220793  0.66750508     1.49100
Zn1141     Zn  0.68373848  0.68791176  0.71823008     1.49500
O1142       O  0.69999902  0.67799818  0.68565842    -1.81500
O1143       O  0.76635362  0.68521805  0.67618280    -0.72100
O1144       O  0.68398040  0.70676514  0.62962806    -0.71900
O1145       O  0.69811807  0.61875936  0.66318846    -0.71400
O1146       O  0.74253710  0.71149181  0.64837870    -0.72100
O1147       O  0.73689091  0.63039249  0.68235139    -0.71700
O1148       O  0.66434494  0.66662057  0.63034281    -0.72300
O1149       O  0.64751076  0.67205298  0.72218499    -0.71700
O1150       O  0.69615401  0.74170735  0.67790383    -0.72400
O1151       O  0.64285475  0.64358358  0.68920683    -0.71800
O1152       O  0.67984127  0.72733313  0.71727776    -0.72300
O1153       O  0.70373581  0.67455750  0.75101400    -0.72200
O1154       O  0.74216812  0.66075639  0.73506282    -0.72000
C1155       C  0.76486745  0.70172577  0.65598375     0.79800
C1156       C  0.66906642  0.68953273  0.61871809     0.80300
C1157       C  0.72231139  0.61369161  0.67022759     0.79200
C1158       C  0.63407585  0.65416267  0.71027189     0.79600
C1159       C  0.68479814  0.74605009  0.69981197     0.80800
C1160       C  0.72662098  0.66384004  0.75467465     0.79800
N1161       N  0.98535838  0.30652882  0.48614805    -0.33900
N1162       N  0.03033281  0.30632634  0.44927541    -0.54500
N1163       N  0.06333183  0.30337456  0.49920620    -0.33900
N1164       N  0.01884337  0.30540667  0.53488490    -0.54500
C1165       C  0.97301662  0.30970386  0.46199589     0.29600
C1166       C  0.96676398  0.30974412  0.50506253     0.29600
C1167       C  0.08165219  0.30554658  0.47972417     0.29600
C1168       C  0.07637483  0.30583740  0.52288088     0.29600
C1169       C  0.01045032  0.29741837  0.43302959     0.38300
C1170       C  0.05299757  0.29505306  0.44041093     0.38300
C1171       C  0.99520403  0.29682182  0.54494252     0.38300
C1172       C  0.03786498  0.29562258  0.55220304     0.38300
C1173       C  0.94632935  0.31619291  0.46551919    -0.19200
C1174       C  0.94239296  0.31642221  0.49281689    -0.19200
C1175       C  0.10671511  0.31050793  0.49099950    -0.19200
C1176       C  0.10334594  0.31093118  0.51836082    -0.19200
C1177       C  0.02084973  0.28263305  0.41264654    -0.20300
C1178       C  0.04757256  0.28095989  0.41737457    -0.20300
C1179       C  0.99926592  0.28264040  0.56930876    -0.20300
C1180       C  0.02628141  0.28201136  0.57393956    -0.20300
C1181       C  0.98291405  0.29859457  0.43860785    -0.15600
C1182       C  0.97000463  0.30075081  0.53209417    -0.15600
C1183       C  0.06561586  0.29732253  0.54780799    -0.15600
C1184       C  0.07769125  0.29414222  0.45466653    -0.15600
H1185       H  0.93083161  0.31785471  0.45010030     0.17300
H1186       H  0.92328142  0.31859946  0.50249289     0.17300
H1187       H  0.12573968  0.31088495  0.48079774     0.17300
H1188       H  0.11925879  0.31209216  0.53330673     0.17300
H1189       H  0.01037253  0.27194940  0.39715051     0.15600
H1190       H  0.06066140  0.26875325  0.40590198     0.15600
H1191       H  0.98452223  0.27260275  0.58197113     0.15600
H1192       H  0.03621214  0.27148425  0.59071837     0.15600
H1193       H  0.00323751  0.29629567  0.48940399     0.28800
H1194       H  0.04492836  0.29385542  0.49685198     0.28800
N1195       N  0.03044753  0.66971287  0.47924297    -0.33900
N1196       N  0.05562454  0.68589345  0.52804547    -0.54500
N1197       N  0.00481963  0.67520125  0.54998517    -0.33900
N1198       N  0.97849131  0.65383335  0.50080067    -0.54500
C1199       C  0.05668487  0.67123830  0.47319583     0.29600
C1200       C  0.01796692  0.65649318  0.45947334     0.29600
C1201       C  0.02082326  0.67516124  0.57189021     0.29600
C1202       C  0.98327619  0.66000445  0.55602881     0.29600
C1203       C  0.07152980  0.69888641  0.51020976     0.38300
C1204       C  0.05799755  0.69921524  0.55092092     0.38300
C1205       C  0.97171409  0.65882754  0.47479253     0.38300
C1206       C  0.95700959  0.66052971  0.51523685     0.38300
C1207       C  0.06130246  0.65710492  0.45025333    -0.19200
C1208       C  0.03667026  0.64826762  0.44125636    -0.19200
C1209       C  0.00976929  0.65926567  0.59233989    -0.19200
C1210       C  0.98619227  0.64901342  0.58197030    -0.19200
C1211       C  0.08461317  0.72031145  0.52192782    -0.20300
C1212       C  0.07680333  0.71987707  0.54812854    -0.20300
C1213       C  0.94494766  0.66615429  0.47245750    -0.20300
C1214       C  0.93555251  0.66716344  0.49829197    -0.20300
C1215       C  0.07420297  0.69075570  0.48378587    -0.15600
C1216       C  0.99051298  0.65963711  0.45389466    -0.15600
C1217       C  0.95888843  0.66551139  0.54287885    -0.15600
C1218       C  0.04275854  0.69256441  0.57375586    -0.15600
H1219       H  0.07995620  0.65595933  0.43954158     0.17300
H1220       H  0.03279773  0.63896527  0.42231633     0.17300
H1221       H  0.01727515  0.65610174  0.61268615     0.17300
H1222       H  0.97210718  0.63626887  0.59290976     0.17300
H1223       H  0.09811678  0.73501707  0.51276227     0.15600
H1224       H  0.08381156  0.73380696  0.56282264     0.15600
H1225       H  0.93398549  0.67196704  0.45424744     0.15600
H1226       H  0.91608260  0.67426565  0.50405723     0.15600
H1227       H  0.02077549  0.68220913  0.49230321     0.28800
H1228       H  0.00580290  0.68914112  0.53372823     0.28800
N1229       N  0.85089171  0.50349504  0.07340659    -0.33900
N1230       N  0.84373724  0.53592150  0.02171058    -0.54500
N1231       N  0.82637968  0.49171196  0.99326557    -0.33900
N1232       N  0.83643598  0.45805622  0.04070735    -0.54500
C1233       C  0.84375264  0.52798327  0.08190712     0.29600
C1234       C  0.84212312  0.48507427  0.09219063     0.29600
C1235       C  0.81501141  0.51205819  0.97835359     0.29600
C1236       C  0.81149285  0.46949626  0.98916281     0.29600
C1237       C  0.85175509  0.55426974  0.03928114     0.38300
C1238       C  0.84091014  0.54896846  0.99757271     0.38300
C1239       C  0.84396267  0.44556427  0.06402663     0.38300
C1240       C  0.83258854  0.43864335  0.02291448     0.38300
C1241       C  0.83298923  0.52501591  0.10747545    -0.19200
C1242       C  0.83222017  0.49805527  0.11399898    -0.19200
C1243       C  0.79278687  0.50258211  0.96445240    -0.19200
C1244       C  0.79055458  0.47559514  0.97132048    -0.19200
C1245       C  0.85597814  0.57898030  0.02571515    -0.20300
C1246       C  0.84944947  0.57553386  0.99912919    -0.20300
C1247       C  0.84583651  0.41792597  0.06080867    -0.20300
C1248       C  0.83922619  0.41356024  0.03441316    -0.20300
C1249       C  0.84310559  0.55225503  0.06590064    -0.15600
C1250       C  0.83891682  0.45717980  0.08855282    -0.15600
C1251       C  0.81834265  0.44333141  0.99870771    -0.15600
C1252       C  0.82436044  0.53891458  0.97707607    -0.15600
H1253       H  0.82466761  0.54017807  0.11982736     0.17300
H1254       H  0.82321071  0.48911596  0.13188895     0.17300
H1255       H  0.77944579  0.51389943  0.95092235     0.17300
H1256       H  0.77545702  0.46189435  0.96381251     0.17300
H1257       H  0.85972412  0.59823362  0.03469872     0.15600
H1258       H  0.84784146  0.59148167  0.98366882     0.15600
H1259       H  0.84906438  0.40242482  0.07647268     0.15600
H1260       H  0.83698715  0.39401859  0.02561275     0.15600
H1261       H  0.85932055  0.49953438  0.05497374     0.28800
H1262       H  0.84495188  0.49205113  0.00315417     0.28800
N1263       N  0.50035596  0.94950085  0.81440739    -0.33900
N1264       N  0.48597103  0.98838063  0.85647635    -0.54500
N1265       N  0.53623951  0.04034467  0.82450628    -0.33900
N1266       N  0.54077708  0.98146718  0.79211419    -0.54500
C1267       C  0.48801005  0.93739953  0.83547420     0.29600
C1268       C  0.51533742  0.93080816  0.80278652     0.29600
C1269       C  0.52271198  0.03114490  0.84619102     0.29600
C1270       C  0.55833465  0.02516532  0.82287522     0.29600
C1271       C  0.46349354  0.97339846  0.85466807     0.38300
C1272       C  0.47836291  0.01430198  0.85817014     0.38300
C1273       C  0.53756932  0.96333550  0.77292948     0.38300
C1274       C  0.55648298  0.00116826  0.78179807     0.38300
C1275       C  0.49514309  0.91032125  0.83729214    -0.19200
C1276       C  0.51226965  0.90606136  0.81643289    -0.19200
C1277       C  0.53783291  0.01148175  0.86008057    -0.19200
C1278       C  0.56009901  0.00721922  0.84480781    -0.19200
C1279       C  0.44124548  0.98929478  0.85818222    -0.20300
C1280       C  0.45074199  0.01548799  0.86019973    -0.20300
C1281       C  0.54990321  0.97270373  0.74950542    -0.20300
C1282       C  0.56150447  0.99708791  0.75504198    -0.20300
C1283       C  0.46359752  0.94753590  0.84397595    -0.15600
C1284       C  0.53095772  0.93635353  0.77984711    -0.15600
C1285       C  0.56899896  0.02007288  0.79795792    -0.15600
C1286       C  0.49509433  0.03581048  0.84926149    -0.15600
H1287       H  0.48726474  0.89481085  0.85093858     0.17300
H1288       H  0.52072996  0.88684759  0.81146629     0.17300
H1289       H  0.53204371  0.99941606  0.87766830     0.17300
H1290       H  0.57418227  0.99076967  0.84774171     0.17300
H1291       H  0.42051697  0.98293112  0.85666649     0.15600
H1292       H  0.43883102  0.03364027  0.86045367     0.15600
H1293       H  0.55199847  0.96262501  0.73086728     0.15600
H1294       H  0.57376899  0.00932512  0.74150840     0.15600
H1295       H  0.49577006  0.96880864  0.80643150     0.28800
H1296       H  0.52898859  0.05321706  0.80899563     0.28800
N1297       N  0.33495863  0.48518336  0.06263794    -0.33900
N1298       N  0.34965157  0.53672358  0.03528692    -0.54500
N1299       N  0.34755455  0.50567022  0.98646417    -0.33900
N1300       N  0.33461216  0.45468389  0.01445891    -0.54500
C1301       C  0.34030054  0.50100304  0.08338033     0.29600
C1302       C  0.33161533  0.45980625  0.07280241     0.29600
C1303       C  0.35521913  0.53033374  0.97698835     0.29600
C1304       C  0.34930517  0.48858455  0.96619054     0.29600
C1305       C  0.33858019  0.54500635  0.05811942     0.38300
C1306       C  0.34432432  0.55657244  0.01656057     0.38300
C1307       C  0.31948649  0.43837299  0.03051810     0.38300
C1308       C  0.32711275  0.44916835  0.98917358     0.38300
C1309       C  0.34158715  0.48530611  0.10707453    -0.19200
C1310       C  0.33592189  0.45913194  0.10036405    -0.19200
C1311       C  0.36309600  0.52879862  0.95054094    -0.19200
C1312       C  0.35963602  0.50225022  0.94376361    -0.19200
C1313       C  0.32770614  0.57062806  0.05408911    -0.20300
C1314       C  0.33156450  0.57801475  0.02801219    -0.20300
C1315       C  0.30343317  0.42153749  0.01554742    -0.20300
C1316       C  0.30817565  0.42841707  0.98933238    -0.20300
C1317       C  0.33596837  0.52898451  0.08200458    -0.15600
C1318       C  0.31900289  0.43931502  0.05856016    -0.15600
C1319       C  0.33605346  0.46338260  0.96586125    -0.15600
C1320       C  0.34722849  0.55428609  0.98867048    -0.15600
H1321       H  0.34364474  0.49244260  0.12725776     0.17300
H1322       H  0.33306256  0.44205040  0.11431617     0.17300
H1323       H  0.36823525  0.54554362  0.93688586     0.17300
H1324       H  0.36182345  0.49454312  0.92389182     0.17300
H1325       H  0.31625531  0.58231513  0.06767588     0.15600
H1326       H  0.32373671  0.59634525  0.01843356     0.15600
H1327       H  0.28892036  0.40667348  0.02268523     0.15600
H1328       H  0.29770951  0.41991440  0.97245910     0.15600
H1329       H  0.32745158  0.49219682  0.04414521     0.28800
H1330       H  0.33583220  0.50239939  0.00324788     0.28800
N1331       N  0.55144900  0.99962171  0.30769333    -0.33900
N1332       N  0.52060822  0.96353962  0.28072646    -0.54500
N1333       N  0.47917372  0.97519531  0.31513146    -0.33900
N1334       N  0.50656477  0.01423459  0.34888486    -0.54500
C1335       C  0.56964417  0.98162643  0.29997209     0.29600
C1336       C  0.55925398  0.00876365  0.33152409     0.29600
C1337       C  0.47108940  0.95110572  0.30627393     0.29600
C1338       C  0.46318103  0.98155597  0.33531103     0.29600
C1339       C  0.54140272  0.96589038  0.26431527     0.38300
C1340       C  0.50071930  0.95179485  0.26745830     0.38300
C1341       C  0.52337869  0.03567436  0.34810609     0.38300
C1342       C  0.48143469  0.02429507  0.34782481     0.38300
C1343       C  0.58985398  0.97919271  0.31932775    -0.19200
C1344       C  0.58346150  0.99689391  0.33914445    -0.19200
C1345       C  0.45080555  0.94088629  0.32271350    -0.19200
C1346       C  0.44514530  0.96075028  0.34044868    -0.19200
C1347       C  0.53435808  0.95668394  0.23919804    -0.20300
C1348       C  0.50823333  0.94741487  0.24129875    -0.20300
C1349       C  0.50894485  0.05945539  0.34965451    -0.20300
C1350       C  0.48217611  0.05219279  0.34905391    -0.20300
C1351       C  0.56710975  0.96819019  0.27556188    -0.15600
C1352       C  0.55011240  0.03377262  0.33946919    -0.15600
C1353       C  0.45893044  0.00859530  0.34064203    -0.15600
C1354       C  0.47851195  0.94131760  0.28109481    -0.15600
H1355       H  0.60749462  0.96660970  0.31900430     0.17300
H1356       H  0.59586854  0.00159988  0.35635165     0.17300
H1357       H  0.43947668  0.92236838  0.32056249     0.17300
H1358       H  0.42833685  0.96089810  0.35391608     0.17300
H1359       H  0.54743905  0.95423332  0.22234691     0.15600
H1360       H  0.49690247  0.93699031  0.22613716     0.15600
H1361       H  0.51677389  0.07989491  0.34817277     0.15600
H1362       H  0.46533250  0.06584354  0.34736042     0.15600
H1363       H  0.53578355  0.00782617  0.29589323     0.28800
H1364       H  0.49144208  0.98923925  0.30512577     0.28800
C1365       C  0.38036042  0.70232318  0.61101770     0.26300
C1366       C  0.36579168  0.72125887  0.62510517    -0.21800
C1367       C  0.36514515  0.74850187  0.61581737     0.21200
C1368       C  0.37698058  0.75619267  0.59159423     0.26200
C1369       C  0.38938116  0.73674792  0.57659615    -0.21800
C1370       C  0.39207897  0.71010801  0.58677150     0.21100
F1371       F  0.40493968  0.69141788  0.57254479    -0.11800
F1372       F  0.38190415  0.67603356  0.61981420    -0.14100
F1373       F  0.37493165  0.78217223  0.58195857    -0.14100
F1374       F  0.35265897  0.76754309  0.62992293    -0.11800
C1375       C  0.44786757  0.65646238  0.77132117     0.26300
C1376       C  0.45936189  0.63867426  0.75379041    -0.21800
C1377       C  0.44399144  0.62693316  0.73373129     0.21200
C1378       C  0.41745019  0.63427739  0.72994049     0.26200
C1379       C  0.40606800  0.65382566  0.74615771    -0.21800
C1380       C  0.42125437  0.66411576  0.76756781     0.21100
F1381       F  0.41083346  0.68229151  0.78418320    -0.11800
F1382       F  0.46257018  0.66663038  0.79177766    -0.14100
F1383       F  0.40339696  0.62297148  0.70964409    -0.14100
F1384       F  0.45484133  0.60866890  0.71749418    -0.11800
C1385       C  0.58717403  0.63601246  0.70501651     0.26300
C1386       C  0.60778973  0.64602355  0.72151832    -0.21800
C1387       C  0.60266394  0.64954688  0.74897346     0.21200
C1388       C  0.57737303  0.64380437  0.75943901     0.26200
C1389       C  0.55679817  0.63455307  0.74273731    -0.21800
C1390       C  0.56182783  0.63045960  0.71557351     0.21100
F1391       F  0.54215321  0.62094867  0.69930443    -0.11800
F1392       F  0.59123205  0.63239735  0.67852860    -0.14100
F1393       F  0.57278154  0.64788003  0.78575365    -0.14100
F1394       F  0.62214579  0.65852080  0.76580603    -0.11800
C1395       C  0.30587984  0.57458544  0.63921743     0.26300
C1396       C  0.28546202  0.55734028  0.64822466    -0.21800
C1397       C  0.26746911  0.56564342  0.66751568     0.21200
C1398       C  0.27104295  0.59068580  0.67912864     0.26200
C1399       C  0.29256298  0.60763365  0.67116287    -0.21800
C1400       C  0.30926505  0.59965500  0.65023711     0.21100
F1401       F  0.32953075  0.61565984  0.64078905    -0.11800
F1402       F  0.32317782  0.56670992  0.62029356    -0.14100
F1403       F  0.25410980  0.59778642  0.69868576    -0.14100
F1404       F  0.24706663  0.54914078  0.67566909    -0.11800
C1405       C  0.60300593  0.37830601  0.74286389     0.26300
C1406       C  0.58705080  0.36881390  0.76394565    -0.21800
C1407       C  0.59401865  0.34594465  0.77982314     0.21200
C1408       C  0.61733683  0.33223690  0.77436051     0.26200
C1409       C  0.63336384  0.34171495  0.75305807    -0.21800
C1410       C  0.62621913  0.36487485  0.73744729     0.21100
F1411       F  0.64095420  0.37366051  0.71605965    -0.11800
F1412       F  0.59520487  0.39954860  0.72653605    -0.14100
F1413       F  0.62424136  0.30996621  0.78968763    -0.14100
F1414       F  0.57793819  0.33670069  0.79997765    -0.11800
C1415       C  0.77577429  0.42986473  0.69415182     0.26300
C1416       C  0.76945340  0.43989863  0.66816051    -0.21800
C1417       C  0.75551560  0.42353770  0.65021244     0.21200
C1418       C  0.74816446  0.39734696  0.65808409     0.26200
C1419       C  0.75315431  0.38779743  0.68457619    -0.21800
C1420       C  0.76726825  0.40412205  0.70251071     0.21100
F1421       F  0.77227183  0.39543505  0.72829854    -0.11800
F1422       F  0.78927175  0.44540461  0.71175520    -0.14100
F1423       F  0.73415732  0.38225367  0.64045184    -0.14100
F1424       F  0.74668018  0.43358648  0.62600011    -0.11800
C1425       C  0.73040544  0.53980139  0.65955983     0.26300
C1426       C  0.75833363  0.53754933  0.66214901    -0.21800
C1427       C  0.77443452  0.56032823  0.66516374     0.21200
C1428       C  0.76265663  0.58542165  0.66633072     0.26200
C1429       C  0.73443780  0.58778124  0.66512286    -0.21800
C1430       C  0.71840717  0.56485934  0.66123884     0.21100
F1431       F  0.69126018  0.56652929  0.65969651    -0.11800
F1432       F  0.71487429  0.51786589  0.65471517    -0.14100
F1433       F  0.77895782  0.60732343  0.66878584    -0.14100
F1434       F  0.80154506  0.55818833  0.66707002    -0.11800
C1435       C  0.63846720  0.29808783  0.59759439     0.26300
C1436       C  0.63576062  0.27098503  0.59092153    -0.21800
C1437       C  0.63965859  0.25026993  0.61069794     0.21200
C1438       C  0.64716731  0.25661770  0.63669661     0.26200
C1439       C  0.65187718  0.28364141  0.64280140    -0.21800
C1440       C  0.64686041  0.30440552  0.62337971     0.21100
F1441       F  0.65132027  0.33066165  0.62911509    -0.11800
F1442       F  0.63346730  0.31832590  0.57903569    -0.14100
F1443       F  0.65259468  0.23627827  0.65507753    -0.14100
F1444       F  0.63794736  0.22386961  0.60441252    -0.11800
C1445       C  0.77893985  0.54973041  0.36789575     0.26300
C1446       C  0.76304628  0.54122188  0.38964866    -0.21800
C1447       C  0.74254656  0.55795775  0.39802180     0.21200
C1448       C  0.73766530  0.58278336  0.38463015     0.26200
C1449       C  0.75292187  0.59117324  0.36205261    -0.21800
C1450       C  0.77403430  0.57451783  0.35421618     0.21100
F1451       F  0.78942079  0.58168000  0.33281727    -0.11800
F1452       F  0.79859758  0.53347892  0.35927540    -0.14100
F1453       F  0.71711793  0.59793544  0.39321478    -0.14100
F1454       F  0.72597156  0.54948634  0.41802599    -0.11800
C1455       C  0.64664338  0.70571283  0.42322662     0.26300
C1456       C  0.65740302  0.72423117  0.44074658    -0.21800
C1457       C  0.68129723  0.73804217  0.43475498     0.21200
C1458       C  0.69538997  0.73206376  0.41183658     0.26200
C1459       C  0.68544065  0.71222143  0.39481819    -0.21800
C1460       C  0.66032295  0.69986835  0.40027793     0.21100
F1461       F  0.64922538  0.68128025  0.38405127    -0.11800
F1462       F  0.62376376  0.69190006  0.42925422    -0.14100
F1463       F  0.71912298  0.74480030  0.40703136    -0.14100
F1464       F  0.69142089  0.75649561  0.45166299    -0.11800
C1465       C  0.65311057  0.73099734  0.55552246     0.26300
C1466       C  0.64615558  0.71092445  0.53773452    -0.21800
C1467       C  0.64460720  0.68380482  0.54693950     0.21200
C1468       C  0.65076428  0.67667403  0.57374986     0.26200
C1469       C  0.65845309  0.69672681  0.59158748    -0.21800
C1470       C  0.65882588  0.72409871  0.58228535     0.21100
F1471       F  0.66528170  0.74431531  0.59892102    -0.11800
F1472       F  0.65513367  0.75726939  0.54676599    -0.14100
F1473       F  0.65022905  0.65016978  0.58189511    -0.14100
F1474       F  0.63718252  0.66427699  0.52993735    -0.11800
C1475       C  0.60325713  0.63042301  0.25511098     0.26300
C1476       C  0.58928711  0.61611159  0.27523142    -0.21800
C1477       C  0.59994660  0.61278026  0.30119424     0.21200
C1478       C  0.62423864  0.62463344  0.30753978     0.26200
C1479       C  0.63816425  0.63986206  0.28777160    -0.21800
C1480       C  0.62777842  0.64233967  0.26133378     0.21100
F1481       F  0.64115037  0.65640853  0.24170412    -0.11800
F1482       F  0.59264409  0.63373443  0.22993643    -0.14100
F1483       F  0.63337926  0.62231177  0.33334298    -0.14100
F1484       F  0.58615426  0.59896305  0.32068331    -0.11800
C1485       C  0.29953371  0.41643697  0.65757420     0.26300
C1486       C  0.32581549  0.40856251  0.65091378    -0.21800
C1487       C  0.34250763  0.42767756  0.63752900     0.21200
C1488       C  0.33326895  0.45400705  0.63155027     0.26200
C1489       C  0.30741821  0.46156769  0.63900153    -0.21800
C1490       C  0.29069446  0.44266503  0.65191307     0.21100
F1491       F  0.26567530  0.44973879  0.65928609    -0.11800
F1492       F  0.28217623  0.39896786  0.67001401    -0.14100
F1493       F  0.34947345  0.47207346  0.61840158    -0.14100
F1494       F  0.36777728  0.42111992  0.63054492    -0.11800
C1495       C  0.46302331  0.37488225  0.70767371     0.26300
C1496       C  0.44419298  0.36132838  0.72432482    -0.21800
C1497       C  0.44894079  0.36100167  0.75249493     0.21200
C1498       C  0.47253579  0.37199449  0.76332776     0.26200
C1499       C  0.49190905  0.38385234  0.74652479    -0.21800
C1500       C  0.48659270  0.38597275  0.71870222     0.21100
F1501       F  0.50484212  0.39787647  0.70203815    -0.11800
F1502       F  0.45921989  0.37660440  0.68063073    -0.14100
F1503       F  0.47711462  0.36976103  0.79025333    -0.14100
F1504       F  0.43104468  0.34948996  0.76981045    -0.11800
C1505       C  0.36194847  0.70854265  0.44607993     0.26300
C1506       C  0.38189684  0.69048455  0.43852436    -0.21800
C1507       C  0.40666234  0.68976546  0.45210135     0.21200
C1508       C  0.41106570  0.70627091  0.47372103     0.26200
C1509       C  0.39122581  0.72456360  0.48104142    -0.21800
C1510       C  0.36675696  0.72574426  0.46701365     0.21100
F1511       F  0.34741085  0.74324162  0.47390009    -0.11800
F1512       F  0.33802022  0.70998669  0.43271757    -0.14100
F1513       F  0.43396797  0.70314246  0.48852058    -0.14100
F1514       F  0.42605646  0.67233062  0.44516685    -0.11800
C1515       C  0.45517430  0.63489235  0.29576571     0.26300
C1516       C  0.44560535  0.61741546  0.31641700    -0.21800
C1517       C  0.45983194  0.59397907  0.32401610     0.21200
C1518       C  0.48410738  0.58860254  0.31177851     0.26200
C1519       C  0.49383051  0.60622367  0.29128078    -0.21800
C1520       C  0.47906654  0.62916209  0.28306815     0.21100
F1521       F  0.48784664  0.64595344  0.26279316    -0.11800
F1522       F  0.44115976  0.65730975  0.28772020    -0.14100
F1523       F  0.49878002  0.56704340  0.32089756    -0.14100
F1524       F  0.45074147  0.57699347  0.34398103    -0.11800
C1525       C  0.66607192  0.25515112  0.48579125     0.26300
C1526       C  0.64037504  0.26338487  0.49294279    -0.21800
C1527       C  0.62430830  0.27802895  0.47422397     0.21200
C1528       C  0.63373767  0.28413232  0.44850725     0.26200
C1529       C  0.65980632  0.27667549  0.44165041    -0.21800
C1530       C  0.67600861  0.26234253  0.46049999     0.21100
F1531       F  0.70126192  0.25495275  0.45426312    -0.11800
F1532       F  0.68155308  0.24021748  0.50332652    -0.14100
F1533       F  0.61794084  0.29852889  0.43075742    -0.14100
F1534       F  0.60008671  0.28761708  0.48125061    -0.11800
C1535       C  0.75822609  0.39682589  0.38365758     0.26300
C1536       C  0.73039142  0.39234523  0.38378069    -0.21800
C1537       C  0.71318919  0.41296806  0.39116249     0.21200
C1538       C  0.72370204  0.43780356  0.39853581     0.26200
C1539       C  0.75143359  0.44260604  0.39769550    -0.21800
C1540       C  0.76867734  0.42205661  0.39010597     0.21100
F1541       F  0.79538122  0.42677885  0.38778549    -0.11800
F1542       F  0.77507935  0.37727034  0.37586515    -0.14100
F1543       F  0.70680956  0.45730847  0.40630363    -0.14100
F1544       F  0.68623449  0.40897307  0.39128832    -0.11800
C1545       C  0.55329257  0.35356238  0.32684738     0.26300
C1546       C  0.54836779  0.35738130  0.29907857    -0.21800
C1547       C  0.56991302  0.35518096  0.28139584     0.21200
C1548       C  0.59575511  0.34908601  0.29131605     0.26200
C1549       C  0.60030022  0.34402498  0.31898855    -0.21800
C1550       C  0.57884351  0.34631501  0.33665295     0.21100
F1551       F  0.58276604  0.34195950  0.36350159    -0.11800
F1552       F  0.53354732  0.35758115  0.34460867    -0.14100
F1553       F  0.61609663  0.34680901  0.27376196    -0.14100
F1554       F  0.56583145  0.35821585  0.25446148    -0.11800
C1555       C  0.41608059  0.32439738  0.26151982     0.26300
C1556       C  0.39840912  0.33495791  0.27995786    -0.21800
C1557       C  0.40673198  0.35519670  0.29713285     0.21200
C1558       C  0.43337078  0.36295828  0.29766709     0.26200
C1559       C  0.45126778  0.35142941  0.28017916    -0.21800
C1560       C  0.44257510  0.33297438  0.26140124     0.21100
F1561       F  0.45984642  0.32295794  0.24355033    -0.11800
F1562       F  0.40794969  0.30479215  0.24486703    -0.14100
F1563       F  0.44198840  0.38082684  0.31593645    -0.14100
F1564       F  0.38981489  0.36516494  0.31537774    -0.11800
C1565       C  0.29390473  0.55885370  0.38935242     0.26300
C1566       C  0.32205841  0.55867375  0.39081426    -0.21800
C1567       C  0.33589233  0.53442084  0.39535051     0.21200
C1568       C  0.32153982  0.51034444  0.39841541     0.26200
C1569       C  0.29345629  0.51042821  0.39564331    -0.21800
C1570       C  0.27967626  0.53471542  0.39127482     0.21100
F1571       F  0.25261239  0.53492128  0.38797537    -0.11800
F1572       F  0.28034243  0.58224459  0.38406106    -0.14100
F1573       F  0.33495397  0.48704440  0.40433186    -0.14100
F1574       F  0.36310256  0.53413416  0.39660950    -0.11800
C1575       C  0.26137573  0.40852689  0.36175723     0.26300
C1576       C  0.27285254  0.41482492  0.38661481    -0.21800
C1577       C  0.28965208  0.39612184  0.40034465     0.21200
C1578       C  0.29538938  0.37159164  0.38905553     0.26200
C1579       C  0.28529952  0.36601913  0.36340207    -0.21800
C1580       C  0.26784126  0.38436878  0.34999974     0.21100
F1581       F  0.25755900  0.37914362  0.32533862    -0.11800
F1582       F  0.24491636  0.42637780  0.34836827    -0.14100
F1583       F  0.31270559  0.35435723  0.40214092    -0.14100
F1584       F  0.30254045  0.40254881  0.42338708    -0.11800
C1585       C  0.41367484  0.27210544  0.56417161     0.26300
C1586       C  0.39356812  0.25686634  0.55149873    -0.21800
C1587       C  0.36838273  0.25414593  0.56343848     0.21200
C1588       C  0.36318110  0.26661715  0.58736578     0.26200
C1589       C  0.38321545  0.28185080  0.60028139    -0.21800
C1590       C  0.40853433  0.28457395  0.58840443     0.21100
F1591       F  0.42841485  0.29866578  0.60053352    -0.11800
F1592       F  0.43813052  0.27522347  0.55283728    -0.14100
F1593       F  0.33825011  0.26395675  0.59780001    -0.14100
F1594       F  0.34890278  0.23878066  0.55224747    -0.11800
C1595       C  0.39397565  0.27657092  0.44259338     0.26300
C1596       C  0.39146722  0.24998050  0.45312492    -0.21800
C1597       C  0.38452565  0.22902717  0.43615530     0.21200
C1598       C  0.37930822  0.23471841  0.40901858     0.26200
C1599       C  0.38023403  0.26149971  0.39883571    -0.21800
C1600       C  0.38806846  0.28235317  0.41553836     0.21100
F1601       F  0.38853587  0.30840913  0.40589483    -0.11800
F1602       F  0.40178446  0.29687372  0.45853510    -0.14100
F1603       F  0.37098603  0.21448387  0.39319871    -0.14100
F1604       F  0.38130065  0.20332722  0.44620492    -0.11800
C1605       C  0.30857632  0.71193571  0.53508579     0.26300
C1606       C  0.30957935  0.68389255  0.53136423    -0.21800
C1607       C  0.33475937  0.67195220  0.52776850     0.21200
C1608       C  0.35829086  0.68776526  0.52706325     0.26200
C1609       C  0.35723149  0.71582320  0.53039001    -0.21800
C1610       C  0.33221025  0.72767370  0.53486243     0.21100
F1611       F  0.33066015  0.75471491  0.53808416    -0.11800
F1612       F  0.28467473  0.72404822  0.53888342    -0.14100
F1613       F  0.38211887  0.67576129  0.52270955    -0.14100
F1614       F  0.33636549  0.64508150  0.52364975    -0.11800
C1615       C  0.22787222  0.57781484  0.58227839     0.26300
C1616       C  0.24550777  0.59009591  0.56325143    -0.21800
C1617       C  0.27065874  0.57739787  0.56009509     0.21200
C1618       C  0.27790237  0.55406869  0.57540584     0.26200
C1619       C  0.26071346  0.54277448  0.59489376    -0.21800
C1620       C  0.23578439  0.55507367  0.59838866     0.21100
F1621       F  0.21885138  0.54479515  0.61731931    -0.11800
F1622       F  0.20236791  0.58658910  0.58453417    -0.14100
F1623       F  0.30218881  0.54272767  0.57152276    -0.14100
F1624       F  0.28768464  0.58638043  0.54065732    -0.11800
C1625       C  0.26448323  0.53538507  0.46960730     0.26300
C1626       C  0.23870275  0.54667117  0.46580335    -0.21800
C1627       C  0.22006243  0.53285341  0.44979181     0.21200
C1628       C  0.22729732  0.50880535  0.43733902     0.26200
C1629       C  0.25339738  0.49810909  0.44044165    -0.21800
C1630       C  0.27175961  0.51162582  0.45698939     0.21100
F1631       F  0.29722327  0.50235785  0.46009014    -0.11800
F1632       F  0.28298291  0.54791474  0.48510973    -0.14100
F1633       F  0.20924162  0.49676144  0.42096242    -0.14100
F1634       F  0.19480786  0.54254624  0.44637084    -0.11800
C1635       C  0.70803744  0.65747369  0.48763263     0.26300
C1636       C  0.73220075  0.67097646  0.49447317    -0.21800
C1637       C  0.73051620  0.69894000  0.49950933     0.21200
C1638       C  0.70577367  0.71244085  0.49847696     0.26200
C1639       C  0.68212469  0.69900152  0.49118474    -0.21800
C1640       C  0.68350026  0.67147038  0.48555317     0.21100
F1641       F  0.66088430  0.65800407  0.47840028    -0.11800
F1642       F  0.70778719  0.63052883  0.48364379    -0.14100
F1643       F  0.70490630  0.73897025  0.50428024    -0.14100
F1644       F  0.75281683  0.71375624  0.50467310    -0.11800
C1645       C  0.77703931  0.56594989  0.47211084     0.26300
C1646       C  0.80228056  0.57873378  0.46733738    -0.21800
C1647       C  0.82082703  0.56316580  0.45301619     0.21200
C1648       C  0.81338626  0.53844157  0.44125179     0.26200
C1649       C  0.78779190  0.52674240  0.44490562    -0.21800
C1650       C  0.76998262  0.54081478  0.46099261     0.21100
F1651       F  0.74519133  0.53036416  0.46566736    -0.11800
F1652       F  0.75930662  0.57695126  0.48880382    -0.14100
F1653       F  0.83136715  0.52597012  0.42583367    -0.14100
F1654       F  0.84678520  0.57113496  0.45105258    -0.11800
C1655       C  0.78372445  0.55465333  0.57686810     0.26300
C1656       C  0.81098183  0.56128611  0.57444170    -0.21800
C1657       C  0.82978629  0.54962399  0.59253040     0.21200
C1658       C  0.82144373  0.53108570  0.61267264     0.26200
C1659       C  0.79415042  0.52454769  0.61521051    -0.21800
C1660       C  0.77526701  0.53673677  0.59743687     0.21100
F1661       F  0.74874915  0.53092991  0.59971640    -0.11800
F1662       F  0.76542476  0.56558749  0.55921539    -0.14100
F1663       F  0.83987828  0.51977789  0.62995693    -0.14100
F1664       F  0.85623026  0.55570085  0.59011654    -0.11800
C1665       C  0.86339395  0.72163140  0.34252267     0.26300
C1666       C  0.88087761  0.70263915  0.33253394    -0.21800
C1667       C  0.87117889  0.68204210  0.31674265     0.21200
C1668       C  0.84388052  0.68018575  0.31099804     0.26200
C1669       C  0.82581908  0.69884565  0.32153817    -0.21800
C1670       C  0.83599227  0.71971117  0.33730562     0.21100
F1671       F  0.81958375  0.73815649  0.34789713    -0.11800
F1672       F  0.87305267  0.74212703  0.35721848    -0.14100
F1673       F  0.83528990  0.65978052  0.29553573    -0.14100
F1674       F  0.88824816  0.66366811  0.30706574    -0.11800
C1675       C  0.90360032  0.65774414  0.38566341     0.26300
C1676       C  0.90835830  0.68573099  0.38429162    -0.21800
C1677       C  0.89858743  0.70163485  0.40457294     0.21200
C1678       C  0.88336120  0.68999444  0.42544318     0.26200
C1679       C  0.87844256  0.66182268  0.42711367    -0.21800
C1680       C  0.88915545  0.64580933  0.40706571     0.21100
F1681       F  0.88602764  0.61853609  0.40833185    -0.11800
F1682       F  0.91306898  0.64194743  0.36631857    -0.14100
F1683       F  0.87254691  0.70661358  0.44330480    -0.14100
F1684       F  0.90302777  0.72874761  0.40363252    -0.11800
C1685       C  0.98517549  0.74367053  0.30513890     0.26300
C1686       C  0.96871566  0.74619652  0.32741098    -0.21800
C1687       C  0.96513212  0.77191653  0.33754303     0.21200
C1688       C  0.97655811  0.79488748  0.32481122     0.26200
C1689       C  0.99144102  0.79295510  0.30090227    -0.21800
C1690       C  0.99719406  0.76653743  0.29268324     0.21100
F1691       F  0.01568196  0.76248101  0.27362286    -0.11800
F1692       F  0.98950969  0.71891255  0.29532414    -0.14100
F1693       F  0.97384485  0.81876591  0.33689312    -0.14100
F1694       F  0.94931415  0.77504464  0.35912239    -0.11800
C1695       C  0.97418241  0.67321774  0.38025094     0.26300
C1696       C  0.96766759  0.70088846  0.37990989    -0.21800
C1697       C  0.97163582  0.71539347  0.40319321     0.21200
C1698       C  0.97991278  0.70192555  0.42704929     0.26200
C1699       C  0.98350620  0.67368006  0.42799719    -0.21800
C1700       C  0.98144799  0.65955488  0.40429169     0.21100
F1701       F  0.98483353  0.63234537  0.40475184    -0.11800
F1702       F  0.97009868  0.65877752  0.35792712    -0.14100
F1703       F  0.98297747  0.71614726  0.44965314    -0.14100
F1704       F  0.96499969  0.74192695  0.40347557    -0.11800
C1705       C  0.83741013  0.71352294  0.63714446     0.26300
C1706       C  0.83439308  0.73140090  0.61473779    -0.21800
C1707       C  0.80894772  0.73677472  0.60394013     0.21200
C1708       C  0.78636381  0.72623066  0.61678660     0.26200
C1709       C  0.78902347  0.71013791  0.64082813    -0.21800
C1710       C  0.81488732  0.70286963  0.65013252     0.21100
F1711       F  0.81849970  0.68607413  0.67209528    -0.11800
F1712       F  0.86222202  0.70691762  0.64678647    -0.14100
F1713       F  0.76193318  0.73228203  0.60581459    -0.14100
F1714       F  0.80594731  0.75319016  0.58160375    -0.11800
C1715       C  0.84887532  0.71826378  0.53973113     0.26300
C1716       C  0.86271429  0.71377815  0.56443855    -0.21800
C1717       C  0.86612960  0.68656488  0.57325292     0.21200
C1718       C  0.85779961  0.66484793  0.55739967     0.26200
C1719       C  0.84206392  0.66896804  0.53352854    -0.21800
C1720       C  0.83853999  0.69646278  0.52478884     0.21100
F1721       F  0.82536989  0.70242817  0.50128010    -0.11800
F1722       F  0.84473672  0.74400133  0.53020577    -0.14100
F1723       F  0.86713707  0.64005746  0.56499796    -0.14100
F1724       F  0.87739850  0.68058663  0.59764397    -0.11800
C1725       C  0.94274564  0.77874322  0.62773175     0.26300
C1726       C  0.91778080  0.78715891  0.61676119    -0.21800
C1727       C  0.91110226  0.81473096  0.61979557     0.21200
C1728       C  0.92885521  0.83319129  0.63241684     0.26200
C1729       C  0.95397415  0.82481061  0.64322062    -0.21800
C1730       C  0.96010585  0.79687849  0.64108889     0.21100
F1731       F  0.98248133  0.78638530  0.65317971    -0.11800
F1732       F  0.94992191  0.75242480  0.62712676    -0.14100
F1733       F  0.92145983  0.85943461  0.63367906    -0.14100
F1734       F  0.88704458  0.82398457  0.61036613    -0.11800
C1735       C  0.92936121  0.73594590  0.54989269     0.26300
C1736       C  0.92039047  0.73409512  0.57634778    -0.21800
C1737       C  0.92580206  0.71066055  0.59219057     0.21200
C1738       C  0.93554495  0.68772103  0.58049195     0.26200
C1739       C  0.94414971  0.68887880  0.55371421    -0.21800
C1740       C  0.94259326  0.71408064  0.53914708     0.21100
F1741       F  0.95363520  0.71766553  0.51452138    -0.11800
F1742       F  0.92427525  0.75842950  0.53417442    -0.14100
F1743       F  0.93466502  0.66402189  0.59501601    -0.14100
F1744       F  0.91748742  0.70858628  0.61804634    -0.11800
C1745       C  0.20045509  0.74806480  0.64504313     0.26300
C1746       C  0.17748818  0.74142482  0.65948466    -0.21800
C1747       C  0.17936554  0.72736634  0.68440755     0.21200
C1748       C  0.20433993  0.72106666  0.69552733     0.26200
C1749       C  0.22763838  0.72812749  0.68134804    -0.21800
C1750       C  0.22551491  0.74141617  0.65582256     0.21100
F1751       F  0.24756602  0.74748071  0.64105145    -0.11800
F1752       F  0.19845510  0.76140246  0.62076618    -0.14100
F1753       F  0.20573123  0.70853248  0.72026708    -0.14100
F1754       F  0.15691366  0.72012458  0.69802110    -0.11800
C1755       C  0.16662371  0.70952831  0.56977815     0.26300
C1756       C  0.17256731  0.68236778  0.57794767    -0.21800
C1757       C  0.16498696  0.67389580  0.60431550     0.21200
C1758       C  0.15290253  0.69185641  0.62179887     0.26200
C1759       C  0.14611409  0.71844439  0.61313864    -0.21800
C1760       C  0.15321322  0.72693543  0.58689077     0.21100
F1761       F  0.14863232  0.75290380  0.57829527    -0.11800
F1762       F  0.17496222  0.72007266  0.54578729    -0.14100
F1763       F  0.14846998  0.68323104  0.64754026    -0.14100
F1764       F  0.16907964  0.64804408  0.61345879    -0.11800
C1765       C  0.06902868  0.78651271  0.67210700     0.26300
C1766       C  0.09237814  0.79257154  0.65778365    -0.21800
C1767       C  0.09781052  0.81967659  0.65017830     0.21200
C1768       C  0.08088972  0.84051611  0.65766556     0.26200
C1769       C  0.05865778  0.83501363  0.67434478    -0.21800
C1770       C  0.05214042  0.80735048  0.67989112     0.21100
F1771       F  0.02906691  0.80025025  0.69249524    -0.11800
F1772       F  0.06285888  0.76045817  0.67914474    -0.14100
F1773       F  0.08565208  0.86574151  0.64711307    -0.14100
F1774       F  0.11948731  0.82597677  0.63493788    -0.11800
C1775       C  0.06545316  0.75008373  0.61117614     0.26300
C1776       C  0.08556994  0.73672101  0.62636119    -0.21800
C1777       C  0.08291772  0.70892029  0.63264405     0.21200
C1778       C  0.06520726  0.69350567  0.61787451     0.26200
C1779       C  0.04861785  0.70641546  0.59859454    -0.21800
C1780       C  0.04603447  0.73476012  0.59812572     0.21100
F1781       F  0.02877039  0.74734831  0.58043939    -0.11800
F1782       F  0.06666271  0.77720449  0.60604078    -0.14100
F1783       F  0.06705924  0.66613538  0.61962228    -0.14100
F1784       F  0.09900146  0.69646495  0.65141935    -0.11800
C1785       C  0.25887435  0.71422299  0.36641395     0.26300
C1786       C  0.26260381  0.68615600  0.36823588    -0.21800
C1787       C  0.24073985  0.66872711  0.37287836     0.21200
C1788       C  0.21530308  0.67943299  0.37613189     0.26200
C1789       C  0.21186072  0.70756387  0.37575933    -0.21800
C1790       C  0.23362400  0.72489669  0.37034432     0.21100
F1791       F  0.23077826  0.75210891  0.37104231    -0.11800
F1792       F  0.27998277  0.73128031  0.36227582    -0.14100
F1793       F  0.19412582  0.66253097  0.38041950    -0.14100
F1794       F  0.24401632  0.64147912  0.37397170    -0.11800
C1795       C  0.21327992  0.69676397  0.43817711     0.26300
C1796       C  0.18621189  0.69446633  0.42990797    -0.21800
C1797       C  0.17102796  0.67334594  0.44225254     0.21200
C1798       C  0.18174107  0.65734322  0.46400518     0.26200
C1799       C  0.20877453  0.66022823  0.47269406    -0.21800
C1800       C  0.22479431  0.67833371  0.45713265     0.21100
F1801       F  0.25183025  0.67649583  0.45762974    -0.11800
F1802       F  0.22905156  0.71687979  0.42781513    -0.14100
F1803       F  0.16564410  0.63861597  0.47635611    -0.14100
F1804       F  0.14569426  0.66822970  0.43343809    -0.11800
C1805       C  0.10690886  0.80413312  0.35976513     0.26300
C1806       C  0.09401405  0.79422995  0.33679724    -0.21800
C1807       C  0.09777659  0.76700965  0.33077314     0.21200
C1808       C  0.11425817  0.75018574  0.34697163     0.26200
C1809       C  0.12758359  0.76002615  0.36975175    -0.21800
C1810       C  0.12367931  0.78718135  0.37606792     0.21100
F1811       F  0.13666074  0.79742982  0.39754671    -0.11800
F1812       F  0.10268027  0.82995837  0.36672514    -0.14100
F1813       F  0.11732404  0.72404188  0.34036232    -0.14100
F1814       F  0.08528058  0.75667630  0.30902949    -0.11800
C1815       C  0.13743783  0.72260111  0.45528227     0.26300
C1816       C  0.12988012  0.72612796  0.42808139    -0.21800
C1817       C  0.10281417  0.72247705  0.42068704     0.21200
C1818       C  0.08433929  0.71415793  0.43984923     0.26200
C1819       C  0.09321916  0.70505814  0.46554535    -0.21800
C1820       C  0.12009246  0.70946134  0.47315695     0.21100
F1821       F  0.12996494  0.69991489  0.49723640    -0.11800
F1822       F  0.16244710  0.72932147  0.46395160    -0.14100
F1823       F  0.05800051  0.71290291  0.43256887    -0.14100
F1824       F  0.09430231  0.72418379  0.39478286    -0.11800
C1825       C  0.75822507  0.14286276  0.10541371     0.26300
C1826       C  0.78225823  0.13415385  0.11772453    -0.21800
C1827       C  0.80093666  0.11937284  0.10388953     0.21200
C1828       C  0.79605679  0.11410410  0.07722042     0.26200
C1829       C  0.77244043  0.12348690  0.06460741    -0.21800
C1830       C  0.75318823  0.13731242  0.07871993     0.21100
F1831       F  0.73021368  0.14614727  0.06641589    -0.11800
F1832       F  0.74033712  0.15752128  0.11897333    -0.14100
F1833       F  0.81461220  0.10056707  0.06340214    -0.14100
F1834       F  0.82450033  0.11159548  0.11575916    -0.11800
C1835       C  0.90621288  0.91937634  0.29776922     0.26300
C1836       C  0.90726827  0.93964337  0.27722791    -0.21800
C1837       C  0.92816955  0.93960511  0.25869212     0.21200
C1838       C  0.94832322  0.92028210  0.26114792     0.26200
C1839       C  0.94821053  0.90071464  0.28246376    -0.21800
C1840       C  0.92664325  0.90003989  0.30041188     0.21100
F1841       F  0.92592384  0.88132179  0.32105365    -0.11800
F1842       F  0.88586332  0.91876532  0.31555296    -0.14100
F1843       F  0.96779591  0.92052876  0.24240721    -0.14100
F1844       F  0.92911573  0.95860286  0.23826375    -0.11800
C1845       C  0.83329645  0.03642016  0.26378305     0.26300
C1846       C  0.85988860  0.02818992  0.26101292    -0.21800
C1847       C  0.87917275  0.04653844  0.25112021     0.21200
C1848       C  0.87154036  0.07256558  0.24246434     0.26200
C1849       C  0.84440650  0.08014979  0.24316577    -0.21800
C1850       C  0.82551611  0.06216293  0.25479986     0.21100
F1851       F  0.79940739  0.06926986  0.25707489    -0.11800
F1852       F  0.81469974  0.01913651  0.27445158    -0.14100
F1853       F  0.89033227  0.08963011  0.23180324    -0.14100
F1854       F  0.90495125  0.03865281  0.24819900    -0.11800
C1855       C  0.05630411  0.93208559  0.24185983     0.26300
C1856       C  0.07205129  0.94407702  0.26187868    -0.21800
C1857       C  0.07800171  0.92816341  0.28516173     0.21200
C1858       C  0.06861728  0.90124679  0.28836997     0.26200
C1859       C  0.05461230  0.88808287  0.26741393    -0.21800
C1860       C  0.04779381  0.90477404  0.24446360     0.21100
F1861       F  0.03135682  0.89537441  0.22501552    -0.11800
F1862       F  0.04987926  0.94670918  0.21905305    -0.14100
F1863       F  0.07232239  0.88873703  0.31281250    -0.14100
F1864       F  0.09349231  0.93862961  0.30487736    -0.11800
C1865       C  0.91226218  0.22609448  0.17319692     0.26300
C1866       C  0.90129892  0.20117509  0.16605312    -0.21800
C1867       C  0.91551983  0.18444468  0.14934350     0.21200
C1868       C  0.94098137  0.19218371  0.14049731     0.26200
C1869       C  0.95230336  0.21674760  0.14826376    -0.21800
C1870       C  0.93767834  0.23389189  0.16425282     0.21100
F1871       F  0.94819372  0.25797695  0.17140722    -0.11800
F1872       F  0.89838198  0.24271416  0.18890829    -0.14100
F1873       F  0.95465360  0.17562930  0.12460064    -0.14100
F1874       F  0.90494273  0.16040194  0.14214063    -0.11800
C1875       C  0.25918301  0.15609475  0.11774979     0.26300
C1876       C  0.23148630  0.15040558  0.11956116    -0.21800
C1877       C  0.21717694  0.14241110  0.09667626     0.21200
C1878       C  0.22998304  0.14179953  0.07213757     0.26200
C1879       C  0.25710729  0.14913104  0.07023674    -0.21800
C1880       C  0.27177145  0.15562248  0.09318319     0.21100
F1881       F  0.29830617  0.16175773  0.09169384    -0.11800
F1882       F  0.27415723  0.16242161  0.13964571    -0.14100
F1883       F  0.21621454  0.13274897  0.05061846    -0.14100
F1884       F  0.19077682  0.13564905  0.09782062    -0.11800
C1885       C  0.12325273  0.05169159  0.25543583     0.26300
C1886       C  0.11503499  0.03475037  0.23514031    -0.21800
C1887       C  0.11514360  0.04389367  0.20818232     0.21200
C1888       C  0.12593921  0.06913553  0.20124151     0.26200
C1889       C  0.13659204  0.08525517  0.22139333    -0.21800
C1890       C  0.13371292  0.07703817  0.24865584     0.21100
F1891       F  0.14226061  0.09292518  0.26872978    -0.11800
F1892       F  0.12310062  0.04289997  0.28160419    -0.14100
F1893       F  0.12779724  0.07680429  0.17486360    -0.14100
F1894       F  0.10614203  0.02772494  0.18856090    -0.11800
C1895       C  0.06162606  0.20005926  0.13739245     0.26300
C1896       C  0.05040000  0.22320832  0.14770529    -0.21800
C1897       C  0.06437064  0.23802033  0.16671490     0.21200
C1898       C  0.08930770  0.22913398  0.17619674     0.26200
C1899       C  0.10020981  0.20511256  0.16688569    -0.21800
C1900       C  0.08647841  0.19100429  0.14687634     0.21100
F1901       F  0.09634323  0.16770935  0.13755346    -0.11800
F1902       F  0.04783736  0.18552778  0.11913856    -0.14100
F1903       F  0.10263476  0.24385122  0.19462185    -0.14100
F1904       F  0.05342882  0.26049136  0.17671520    -0.11800
C1905       C  0.91478349  0.71853343  0.27357121     0.26300
C1906       C  0.91705540  0.73367662  0.29665552    -0.21800
C1907       C  0.90608118  0.75962126  0.29679804     0.21200
C1908       C  0.89199213  0.76997462  0.27439400     0.26200
C1909       C  0.88818155  0.75420581  0.25169027    -0.21800
C1910       C  0.90043649  0.72869676  0.25114858     0.21100
F1911       F  0.89736842  0.71299309  0.22957724    -0.11800
F1912       F  0.92521899  0.69327279  0.27335557    -0.14100
F1913       F  0.88164580  0.79525313  0.27519283    -0.14100
F1914       F  0.90746004  0.77423878  0.31923796    -0.11800
C1915       C  0.79198379  0.82839261  0.06737671     0.26300
C1916       C  0.81411432  0.84049150  0.08041399    -0.21800
C1917       C  0.82696011  0.86300286  0.06800719     0.21200
C1918       C  0.81736080  0.87357654  0.04348503     0.26200
C1919       C  0.79539483  0.86143778  0.03093698    -0.21800
C1920       C  0.78287793  0.83878454  0.04267171     0.21100
F1921       F  0.76217950  0.82645604  0.02991746    -0.11800
F1922       F  0.77932865  0.80622050  0.07816629    -0.14100
F1923       F  0.83014559  0.89497799  0.03134735    -0.14100
F1924       F  0.84878237  0.87474021  0.07938690    -0.11800
C1925       C  0.85980840  0.88600401  0.23912926     0.26300
C1926       C  0.86798483  0.88456902  0.21221090    -0.21800
C1927       C  0.87530155  0.90833829  0.19767695     0.21200
C1928       C  0.87417058  0.93309758  0.20988036     0.26200
C1929       C  0.86489737  0.93420700  0.23620091    -0.21800
C1930       C  0.85708157  0.91073654  0.25043358     0.21100
F1931       F  0.84761435  0.91177590  0.27579035    -0.11800
F1932       F  0.85405496  0.86353062  0.25463091    -0.14100
F1933       F  0.88305646  0.95570132  0.19644761    -0.14100
F1934       F  0.88323779  0.90772497  0.17177110    -0.11800
C1935       C  0.01957255  0.77493899  0.18667733     0.26300
C1936       C  0.01929291  0.80343164  0.18843286    -0.21800
C1937       C  0.01774730  0.81904971  0.16406407     0.21200
C1938       C  0.01671074  0.80652395  0.13892683     0.26200
C1939       C  0.01713102  0.77809615  0.13746762    -0.21800
C1940       C  0.01848219  0.76259869  0.16168476     0.21100
F1941       F  0.01928019  0.73523955  0.16106403    -0.11800
F1942       F  0.02184383  0.75880912  0.20925951    -0.14100
F1943       F  0.01569915  0.82217612  0.11594918    -0.14100
F1944       F  0.01671850  0.84641425  0.16456680    -0.11800
C1945       C  0.95784365  0.78375950  0.09109303     0.26300
C1946       C  0.97125603  0.76067298  0.10112002    -0.21800
C1947       C  0.95866646  0.74215620  0.11873614     0.21200
C1948       C  0.93322090  0.74757592  0.12789445     0.26200
C1949       C  0.92035577  0.77170174  0.11945158    -0.21800
C1950       C  0.93226680  0.78921675  0.10012334     0.21100
F1951       F  0.91955214  0.81199762  0.09082743    -0.11800
F1952       F  0.97003448  0.80155990  0.07370799    -0.14100
F1953       F  0.92224528  0.73045378  0.14673549    -0.14100
F1954       F  0.97171990  0.71966798  0.12824533    -0.11800
C1955       C  0.18188548  0.78383152  0.30909910     0.26300
C1956       C  0.17784315  0.76612517  0.28815559    -0.21800
C1957       C  0.17443275  0.73835109  0.29393150     0.21200
C1958       C  0.17427565  0.72840498  0.32054014     0.26200
C1959       C  0.17749815  0.74621271  0.34155096    -0.21800
C1960       C  0.18148598  0.77394550  0.33571722     0.21100
F1961       F  0.18494668  0.79135535  0.35587325    -0.11800
F1962       F  0.18683463  0.81049975  0.30369672    -0.14100
F1963       F  0.16982886  0.70164046  0.32585076    -0.14100
F1964       F  0.17159170  0.72090643  0.27371719    -0.11800
C1965       C  0.08023597  0.74117477  0.13197177     0.26300
C1966       C  0.06859588  0.76072711  0.11425481    -0.21800
C1967       C  0.08091885  0.78617057  0.11077750     0.21200
C1968       C  0.10465315  0.79199803  0.12473543     0.26200
C1969       C  0.11605202  0.77266580  0.14277258    -0.21800
C1970       C  0.10379475  0.74717272  0.14630130     0.21100
F1971       F  0.11452326  0.72826174  0.16374235    -0.11800
F1972       F  0.06832802  0.71663572  0.13597341    -0.14100
F1973       F  0.11618531  0.81679213  0.12123910    -0.14100
F1974       F  0.06963976  0.80553181  0.09424034    -0.11800
C1975       C  0.13149278  0.89772755  0.20794461     0.26300
C1976       C  0.15465792  0.88911320  0.22229613    -0.21800
C1977       C  0.16371363  0.90432360  0.24393756     0.21200
C1978       C  0.14973521  0.92749313  0.25118440     0.26200
C1979       C  0.12674811  0.93624932  0.23660886    -0.21800
C1980       C  0.11808139  0.92134615  0.21464215     0.21100
F1981       F  0.09749478  0.93043883  0.19871088    -0.11800
F1982       F  0.12252787  0.88390100  0.18656731    -0.14100
F1983       F  0.15893782  0.94171632  0.27218981    -0.14100
F1984       F  0.18584927  0.89648639  0.25833883    -0.11800
C1985       C  0.25267658  0.84329155  0.09128528     0.26300
C1986       C  0.23240973  0.85240546  0.10789297    -0.21800
C1987       C  0.21896897  0.87656692  0.10050755     0.21200
C1988       C  0.22478996  0.89063986  0.07625897     0.26200
C1989       C  0.24506833  0.88151984  0.05962794    -0.21800
C1990       C  0.25923611  0.85796750  0.06761922     0.21100
F1991       F  0.27934050  0.84902686  0.05229033    -0.11800
F1992       F  0.26641126  0.82039230  0.09820816    -0.14100
F1993       F  0.20966378  0.91230913  0.06844314    -0.14100
F1994       F  0.19924378  0.88580772  0.11616530    -0.11800
C1995       C  0.01605865  0.79931973  0.78002374     0.26300
C1996       C  0.02039836  0.82739400  0.78043659    -0.21800
C1997       C  0.02633244  0.83919819  0.80505211     0.21200
C1998       C  0.02828357  0.82300062  0.82883475     0.26200
C1999       C  0.02389286  0.79494388  0.82824314    -0.21800
C2000       C  0.01773388  0.78330592  0.80367442     0.21100
F2001       F  0.01377745  0.75620765  0.80264291    -0.11800
F2002       F  0.01013082  0.78743279  0.75656368    -0.14100
F2003       F  0.03412520  0.83461821  0.85243483    -0.14100
F2004       F  0.03108827  0.86618061  0.80582970    -0.11800
C2005       C  0.14888573  0.78050339  0.73532205     0.26300
C2006       C  0.17269968  0.79572943  0.73524171    -0.21800
C2007       C  0.18290207  0.80604795  0.71070064     0.21200
C2008       C  0.17044849  0.79952372  0.68648675     0.26200
C2009       C  0.14731229  0.78330376  0.68660763    -0.21800
C2010       C  0.13606452  0.77462542  0.71117176     0.21100
F2011       F  0.11401202  0.75840298  0.71172400    -0.11800
F2012       F  0.13831549  0.77088254  0.75876773    -0.14100
F2013       F  0.18165737  0.80786551  0.66289249    -0.14100
F2014       F  0.20582970  0.82099238  0.71010124    -0.11800
C2015       C  0.11053992  0.80672205  0.87491289     0.26300
C2016       C  0.12309096  0.79816819  0.85175598    -0.21800
C2017       C  0.10963079  0.78112110  0.83406367     0.21200
C2018       C  0.08428478  0.77187100  0.83991391     0.26200
C2019       C  0.07198693  0.78004263  0.86306046    -0.21800
C2020       C  0.08477842  0.79759056  0.88055879     0.21100
F2021       F  0.07226677  0.80591975  0.90274773    -0.11800
F2022       F  0.12336730  0.82312516  0.89221429    -0.14100
F2023       F  0.07175563  0.75472215  0.82312230    -0.14100
F2024       F  0.12096632  0.77348810  0.81098255    -0.11800
C2025       C  0.27277310  0.87540158  0.94980843     0.26300
C2026       C  0.25321910  0.89116233  0.96142356    -0.21800
C2027       C  0.22959430  0.89757478  0.94723650     0.21200
C2028       C  0.22463757  0.88682676  0.92222809     0.26200
C2029       C  0.24320149  0.86900814  0.91126155    -0.21800
C2030       C  0.26781333  0.86423820  0.92490884     0.21100
F2031       F  0.28657069  0.84778779  0.91490991    -0.11800
F2032       F  0.29610998  0.86976448  0.96319055    -0.14100
F2033       F  0.20121748  0.89322327  0.90930029    -0.14100
F2034       F  0.21078605  0.91332204  0.95819548    -0.11800
C2035       C  0.11358337  0.97467446  0.74019109     0.26300
C2036       C  0.13948204  0.97391715  0.72931619    -0.21800
C2037       C  0.14435123  0.95469113  0.70993028     0.21200
C2038       C  0.12360181  0.93761965  0.70071261     0.26200
C2039       C  0.09736925  0.93885322  0.71106820    -0.21800
C2040       C  0.09306093  0.95722584  0.73160210     0.21100
F2041       F  0.06926933  0.95770488  0.74439510    -0.11800
F2042       F  0.10836074  0.99145968  0.76030293    -0.14100
F2043       F  0.12915363  0.92035274  0.68111404    -0.14100
F2044       F  0.16917265  0.95284377  0.69940021    -0.11800
C2045       C  0.21513076  0.94775117  0.76062289     0.26300
C2046       C  0.18978963  0.95866214  0.76419548    -0.21800
C2047       C  0.17120069  0.94612040  0.78126238     0.21200
C2048       C  0.17741841  0.92187947  0.79403099     0.26200
C2049       C  0.20282056  0.91049168  0.79054456    -0.21800
C2050       C  0.22183161  0.92367588  0.77397565     0.21100
F2051       F  0.24678645  0.91351219  0.77088521    -0.11800
F2052       F  0.23344306  0.96080511  0.74482032    -0.14100
F2053       F  0.15834919  0.90960492  0.80952137    -0.14100
F2054       F  0.14760463  0.95806060  0.78680027    -0.11800
C2055       C  0.17547653  0.05775970  0.79571516     0.26300
C2056       C  0.18403491  0.05468343  0.76927316    -0.21800
C2057       C  0.19847981  0.07536780  0.75599273     0.21200
C2058       C  0.20496220  0.09873729  0.76941999     0.26200
C2059       C  0.19713495  0.10123097  0.79614468    -0.21800
C2060       C  0.18209319  0.08095952  0.80913748     0.21100
F2061       F  0.17420704  0.08351548  0.83486640    -0.11800
F2062       F  0.16097512  0.03816794  0.80868514    -0.14100
F2063       F  0.21910174  0.11879604  0.75658839    -0.14100
F2064       F  0.20692113  0.07252408  0.73048533    -0.11800
C2065       C  0.28179138  0.17919028  0.93236441     0.26300
C2066       C  0.26202549  0.16301471  0.92058328    -0.21800
C2067       C  0.24923810  0.14238826  0.93553298     0.21200
C2068       C  0.25553092  0.13853144  0.96257332     0.26200
C2069       C  0.27488007  0.15506616  0.97454767    -0.21800
C2070       C  0.28837180  0.17504940  0.95939462     0.21100
F2071       F  0.30708744  0.19102822  0.97101278    -0.11800
F2072       F  0.29398344  0.19942939  0.91783112    -0.14100
F2073       F  0.24192085  0.11946903  0.97724650    -0.14100
F2074       F  0.22928045  0.12748816  0.92445343    -0.11800
C2075       C  0.13086833  0.24108273  0.87213929     0.26300
C2076       C  0.13734143  0.21355930  0.87275264    -0.21800
C2077       C  0.11792396  0.19377892  0.87868086     0.21200
C2078       C  0.09187173  0.20154500  0.88373567     0.26200
C2079       C  0.08515956  0.22901116  0.88203424    -0.21800
C2080       C  0.10467547  0.24879407  0.87645405     0.21100
F2081       F  0.09809495  0.27537015  0.87405932    -0.11800
F2082       F  0.14943652  0.26025562  0.86531428    -0.14100
F2083       F  0.07324871  0.18239040  0.89031686    -0.14100
F2084       F  0.12417305  0.16709137  0.87906612    -0.11800
C2085       C  0.95836270  0.95945839  0.70600270     0.26300
C2086       C  0.96767838  0.97130746  0.72980029    -0.21800
C2087       C  0.98805999  0.95764471  0.74444204     0.21200
C2088       C  0.99842574  0.93291924  0.73609419     0.26200
C2089       C  0.98937172  0.92071636  0.71210175    -0.21800
C2090       C  0.96937327  0.93503763  0.69696731     0.21100
F2091       F  0.96064913  0.92590023  0.67307887    -0.11800
F2092       F  0.93798816  0.97135924  0.69165451    -0.14100
F2093       F  0.01850717  0.92155400  0.75127431    -0.14100
F2094       F  0.99708414  0.96757091  0.76795676    -0.11800
C2095       C  0.90846392  0.09517224  0.77103638     0.26300
C2096       C  0.90594202  0.09757856  0.79907665    -0.21800
C2097       C  0.91623876  0.07711267  0.81660218     0.21200
C2098       C  0.92668574  0.05368077  0.80619282     0.26200
C2099       C  0.92675895  0.05054111  0.77832908    -0.21800
C2100       C  0.91820808  0.07158297  0.76083927     0.21100
F2101       F  0.91733899  0.06852827  0.73388379    -0.11800
F2102       F  0.90021389  0.11506408  0.75324319    -0.14100
F2103       F  0.93571147  0.03357629  0.82326796    -0.14100
F2104       F  0.91477840  0.07900827  0.84363834    -0.11800
C2105       C  0.95299277  0.23237497  0.84325035     0.26300
C2106       C  0.93712568  0.21524409  0.85986000    -0.21800
C2107       C  0.94622950  0.20787815  0.88598819     0.21200
C2108       C  0.97135100  0.21633632  0.89479783     0.26200
C2109       C  0.98739649  0.23255520  0.87779033    -0.21800
C2110       C  0.97795550  0.24101794  0.85227963     0.21100
F2111       F  0.99321227  0.25717904  0.83589731    -0.11800
F2112       F  0.94495251  0.23989425  0.81788438    -0.14100
F2113       F  0.98053215  0.20752535  0.91937722    -0.14100
F2114       F  0.93105014  0.19219352  0.90289690    -0.11800
C2115       C  0.82619072  0.11862773  0.93370138     0.26300
C2116       C  0.81694836  0.14188977  0.91916782    -0.21800
C2117       C  0.79606850  0.15685221  0.93029043     0.21200
C2118       C  0.78445833  0.14856200  0.95472425     0.26200
C2119       C  0.79309219  0.12500203  0.96874967    -0.21800
C2120       C  0.81426628  0.11021192  0.95817728     0.21100
F2121       F  0.82390447  0.08801993  0.97190236    -0.11800
F2122       F  0.84641454  0.10376259  0.92406083    -0.14100
F2123       F  0.76443610  0.16353436  0.96462360    -0.14100
F2124       F  0.78705475  0.17998485  0.91772789    -0.11800
C2125       C  0.87591685  0.76860441  0.69265442     0.26300
C2126       C  0.85219822  0.78248821  0.69765379    -0.21800
C2127       C  0.83516139  0.79045229  0.67609373     0.21200
C2128       C  0.84218494  0.78500524  0.64972471     0.26200
C2129       C  0.86608576  0.77126993  0.64475416    -0.21800
C2130       C  0.88255663  0.76262163  0.66652024     0.21100
F2131       F  0.90453721  0.74738504  0.66255884    -0.11800
F2132       F  0.89248191  0.76044609  0.71326629    -0.14100
F2133       F  0.82586180  0.79324268  0.62898433    -0.14100
F2134       F  0.81238169  0.80437060  0.68049224    -0.11800
C2135       C  0.83346462  0.86503183  0.89873718     0.26300
C2136       C  0.81349023  0.85709339  0.88052284    -0.21800
C2137       C  0.78681483  0.85455584  0.88866466     0.21200
C2138       C  0.78019010  0.85951207  0.91505943     0.26200
C2139       C  0.80012455  0.86749444  0.93328783    -0.21800
C2140       C  0.82673570  0.87055454  0.92500720     0.21100
F2141       F  0.84608317  0.87880899  0.94234209    -0.11800
F2142       F  0.85946766  0.86687438  0.89114750    -0.14100
F2143       F  0.75454265  0.85560308  0.92313608    -0.14100
F2144       F  0.76755891  0.84577455  0.87147650    -0.11800
C2145       C  0.91303456  0.90904052  0.77774808     0.26300
C2146       C  0.88740828  0.90555432  0.76610261    -0.21800
C2147       C  0.87638572  0.92662946  0.74982942     0.21200
C2148       C  0.89061108  0.95086327  0.74547821     0.26200
C2149       C  0.91563740  0.95481852  0.75809219    -0.21800
C2150       C  0.92680489  0.93368631  0.77419266     0.21100
F2151       F  0.95024027  0.93744698  0.78776210    -0.11800
F2152       F  0.92398205  0.88917943  0.79394468    -0.14100
F2153       F  0.87960979  0.97084983  0.72951839    -0.14100
F2154       F  0.85181969  0.92373035  0.73815974    -0.11800
C2155       C  0.93745954  0.75843933  0.82507628     0.26300
C2156       C  0.92777326  0.78468085  0.82795584    -0.21800
C2157       C  0.94175262  0.80298112  0.84368997     0.21200
C2158       C  0.96582530  0.79541271  0.85590695     0.26200
C2159       C  0.97583072  0.76931762  0.85285212    -0.21800
C2160       C  0.96146744  0.75063508  0.83780588     0.21100
F2161       F  0.97122807  0.72543926  0.83463909    -0.11800
F2162       F  0.92362643  0.74055296  0.81014881    -0.14100
F2163       F  0.97962350  0.81359728  0.87055048    -0.14100
F2164       F  0.93219163  0.82828961  0.84684830    -0.11800
C2165       C  0.54086177  0.34151820  0.71470637     0.26300
C2166       C  0.53615520  0.34371438  0.74224275    -0.21800
C2167       C  0.52676818  0.32053804  0.75665230     0.21200
C2168       C  0.52274874  0.29563096  0.74399541     0.26200
C2169       C  0.52751351  0.29321436  0.71622258    -0.21800
C2170       C  0.53627023  0.31696636  0.70181318     0.21100
F2171       F  0.53961313  0.31692589  0.67485222    -0.11800
F2172       F  0.54953021  0.36348086  0.70005857    -0.14100
F2173       F  0.51472095  0.27382072  0.75921682    -0.14100
F2174       F  0.52149027  0.32205474  0.78317288    -0.11800
C2175       C  0.56754915  0.20516250  0.60917361     0.26300
C2176       C  0.55663878  0.22498016  0.62596376    -0.21800
C2177       C  0.55784513  0.25202785  0.61544038     0.21200
C2178       C  0.57246619  0.25910744  0.59205295     0.26200
C2179       C  0.58527368  0.23947576  0.57702607    -0.21800
C2180       C  0.58191330  0.21231455  0.58558257     0.21100
F2181       F  0.59335355  0.19255529  0.57159578    -0.11800
F2182       F  0.56321892  0.17844536  0.61467858    -0.14100
F2183       F  0.57409070  0.28558210  0.58392942    -0.14100
F2184       F  0.54338566  0.27171693  0.62638898    -0.11800
C2185       C  0.47382934  0.19687841  0.56290157     0.26300
C2186       C  0.46081525  0.19530025  0.58820084    -0.21800
C2187       C  0.43269718  0.19587004  0.58787034     0.21200
C2188       C  0.41864090  0.20152811  0.56373292     0.26200
C2189       C  0.43227639  0.20983939  0.54004355    -0.21800
C2190       C  0.45994826  0.20551685  0.53940475     0.21100
F2191       F  0.47395596  0.21119795  0.51674085    -0.11800
F2192       F  0.50028563  0.19113753  0.56089992    -0.14100
F2193       F  0.39146997  0.20035713  0.56392044    -0.14100
F2194       F  0.41867627  0.19261731  0.61087078    -0.11800
C2195       C  0.84350300  0.00849525  0.78798760     0.26300
C2196       C  0.84169176  0.99627272  0.81419595    -0.21800
C2197       C  0.86582832  0.98636529  0.82623083     0.21200
C2198       C  0.89044981  0.98831098  0.81249402     0.26200
C2199       C  0.89197857  0.00094032  0.78672381    -0.21800
C2200       C  0.86826016  0.01119952  0.77483847     0.21100
F2201       F  0.86897054  0.02320240  0.74988510    -0.11800
F2202       F  0.82120426  0.01702324  0.77432005    -0.14100
F2203       F  0.91298401  0.97809350  0.82453137    -0.14100
F2204       F  0.86589811  0.97527898  0.85156983    -0.11800
C2205       C  0.74441266  0.92985223  0.90793141     0.26300
C2206       C  0.76594870  0.94447256  0.89558233    -0.21800
C2207       C  0.78996606  0.94645589  0.91098235     0.21200
C2208       C  0.79281938  0.93299924  0.93623399     0.26200
C2209       C  0.77172633  0.91760227  0.94748663    -0.21800
C2210       C  0.74748522  0.91637124  0.93312769     0.21100
F2211       F  0.72686154  0.90126832  0.94318030    -0.11800
F2212       F  0.71952598  0.92989419  0.89664034    -0.14100
F2213       F  0.81669514  0.93442066  0.94958783    -0.14100
F2214       F  0.81015152  0.96312319  0.90282101    -0.11800
C2215       C  0.76986906  0.03545638  0.95567900     0.26300
C2216       C  0.75033280  0.04234376  0.93576690    -0.21800
C2217       C  0.73445473  0.06538476  0.93891188     0.21200
C2218       C  0.73828546  0.08126246  0.96124081     0.26200
C2219       C  0.75758606  0.07406520  0.98100570    -0.21800
C2220       C  0.77315357  0.05100977  0.97821610     0.21100
F2221       F  0.79291264  0.04462910  0.99634130    -0.11800
F2222       F  0.78707199  0.01471585  0.95263620    -0.14100
F2223       F  0.72385472  0.10427761  0.96313248    -0.14100
F2224       F  0.71534939  0.07263475  0.92035862    -0.11800
C2225       C  0.22862909  0.00626492  0.83434664     0.26300
C2226       C  0.25544287  0.01366199  0.82880394    -0.21800
C2227       C  0.26276909  0.01652411  0.80143938     0.21200
C2228       C  0.24353583  0.01387052  0.78064568     0.26200
C2229       C  0.21681514  0.00702234  0.78642054    -0.21800
C2230       C  0.20992091  0.00210139  0.81345774     0.21100
F2231       F  0.18476777  0.99376157  0.81972893    -0.11800
F2232       F  0.22010982  0.00402196  0.86006792    -0.14100
F2233       F  0.25105603  0.01776799  0.75471372    -0.14100
F2234       F  0.28861321  0.02134499  0.79457150    -0.11800
C2235       C  0.30725550  0.94017577  0.97015495     0.26300
C2236       C  0.28070585  0.94342123  0.97933879    -0.21800
C2237       C  0.26546309  0.96335506  0.96474499     0.21200
C2238       C  0.27613318  0.97930332  0.94259355     0.26200
C2239       C  0.30259550  0.97565852  0.93282044    -0.21800
C2240       C  0.31798572  0.95605221  0.94799741     0.21100
F2241       F  0.34394883  0.95218168  0.94147261    -0.11800
F2242       F  0.32303624  0.92105146  0.98249890    -0.14100
F2243       F  0.26040810  0.99907901  0.93138846    -0.14100
F2244       F  0.23965562  0.96733207  0.97176672    -0.11800
C2245       C  0.29482892  0.08837587  0.99255683     0.26300
C2246       C  0.31015551  0.11116573  0.99842676    -0.21800
C2247       C  0.33571008  0.11471967  0.98741554     0.21200
C2248       C  0.34584349  0.09532408  0.97056728     0.26200
C2249       C  0.32998282  0.07287891  0.96392966    -0.21800
C2250       C  0.30404877  0.07010161  0.97461580     0.21100
F2251       F  0.28686776  0.05048237  0.96670136    -0.11800
F2252       F  0.27031905  0.08427375  0.00347587    -0.14100
F2253       F  0.37093145  0.09841512  0.96070698    -0.14100
F2254       F  0.35066505  0.13687438  0.99295785    -0.11800
C2255       C  0.51852980  0.71588434  0.72207421     0.26300
C2256       C  0.51046153  0.71543801  0.69476412    -0.21800
C2257       C  0.50024011  0.69090611  0.68509992     0.21200
C2258       C  0.49861156  0.66758117  0.70207864     0.26200
C2259       C  0.50746208  0.66804136  0.72894707    -0.21800
C2260       C  0.51721149  0.69240832  0.73881956     0.21100
F2261       F  0.52542288  0.69339109  0.76485501    -0.11800
F2262       F  0.52728980  0.73915513  0.73282062    -0.14100
F2263       F  0.48938652  0.64420426  0.69195650    -0.14100
F2264       F  0.49289429  0.68905624  0.65890947    -0.11800
C2265       C  0.47397542  0.75486998  0.59161354     0.26300
C2266       C  0.47501458  0.78176418  0.60040018    -0.21800
C2267       C  0.45962009  0.80128382  0.58532394     0.21200
C2268       C  0.44199808  0.79366894  0.56453972     0.26200
C2269       C  0.43987563  0.76660846  0.55747025    -0.21800
C2270       C  0.45629152  0.74740041  0.57099714     0.21100
F2271       F  0.45542665  0.72118690  0.56395122    -0.11800
F2272       F  0.49142968  0.73594746  0.60154895    -0.14100
F2273       F  0.42686764  0.81281087  0.55134771    -0.14100
F2274       F  0.46244181  0.82804795  0.58957128    -0.11800
C2275       C  0.57288981  0.74308267  0.55869004     0.26300
C2276       C  0.57458247  0.77111244  0.56168666    -0.21800
C2277       C  0.58827470  0.78722935  0.54252555     0.21200
C2278       C  0.60072193  0.77538301  0.52090287     0.26200
C2279       C  0.59970652  0.74718654  0.51829588    -0.21800
C2280       C  0.58539242  0.73119133  0.53721641     0.21100
F2281       F  0.58426583  0.70391549  0.53530632    -0.11800
F2282       F  0.55935027  0.72728007  0.57686060    -0.14100
F2283       F  0.61515053  0.79122951  0.50350555    -0.14100
F2284       F  0.58944450  0.81444097  0.54481961    -0.11800
C2285       C  0.39677701  0.81742923  0.74309808     0.26300
C2286       C  0.38678952  0.83991299  0.72820159    -0.21800
C2287       C  0.36711980  0.83614809  0.70839538     0.21200
C2288       C  0.35442949  0.81115812  0.70647521     0.26200
C2289       C  0.36182908  0.78929972  0.72406374    -0.21800
C2290       C  0.38425230  0.79227380  0.74125410     0.21100
F2291       F  0.39320134  0.77134610  0.75736919    -0.11800
F2292       F  0.41589851  0.82071697  0.76234854    -0.14100
F2293       F  0.33358478  0.80913393  0.68880364    -0.14100
F2294       F  0.35757536  0.85776282  0.69365975    -0.11800
C2295       C  0.32788282  0.82207934  0.79177278     0.26300
C2296       C  0.30270986  0.82703389  0.77989549    -0.21800
C2297       C  0.29999003  0.84595752  0.75808657     0.21200
C2298       C  0.32170514  0.86178355  0.75031995     0.26200
C2299       C  0.34614133  0.85837977  0.76381452    -0.21800
C2300       C  0.34965551  0.83769820  0.78362693     0.21100
F2301       F  0.37393081  0.83322379  0.79559898    -0.11800
F2302       F  0.33095422  0.80329227  0.81220678    -0.14100
F2303       F  0.31874616  0.88100950  0.73027781    -0.14100
F2304       F  0.27580081  0.85120956  0.74615047    -0.11800
C2305       C  0.44524594  0.87546279  0.67830062     0.26300
C2306       C  0.46584250  0.85759872  0.68622701    -0.21800
C2307       C  0.47069212  0.85204559  0.71385852     0.21200
C2308       C  0.45439329  0.86323245  0.73312714     0.26200
C2309       C  0.43284088  0.87984013  0.72507176    -0.21800
C2310       C  0.42888100  0.88649955  0.69757065     0.21100
F2311       F  0.40769888  0.90198736  0.68929685    -0.11800
F2312       F  0.44054609  0.88155684  0.65185169    -0.14100
F2313       F  0.45828044  0.85604780  0.75946483    -0.14100
F2314       F  0.48992380  0.83416140  0.72209686    -0.11800
C2315       C  0.36222492  0.90204402  0.81566045     0.26300
C2316       C  0.36252282  0.91200650  0.78879253    -0.21800
C2317       C  0.35131033  0.93730159  0.78225425     0.21200
C2318       C  0.34167083  0.95329097  0.80239600     0.26200
C2319       C  0.34403287  0.94462821  0.82966597    -0.21800
C2320       C  0.35322265  0.91831997  0.83596252     0.21100
F2321       F  0.35574185  0.90924613  0.86194217    -0.11800
F2322       F  0.37252251  0.87748359  0.82269947    -0.14100
F2323       F  0.33099669  0.97774020  0.79525977    -0.14100
F2324       F  0.35083353  0.94703885  0.75637953    -0.11800
C2325       C  0.42683573  0.89880050  0.80370101     0.26300
C2326       C  0.42149500  0.91429878  0.77997630    -0.21800
C2327       C  0.42493542  0.94236738  0.77983302     0.21200
C2328       C  0.43553124  0.95456339  0.80249617     0.26200
C2329       C  0.44131732  0.93886524  0.82624648    -0.21800
C2330       C  0.43466116  0.91129169  0.82709929     0.21100
F2331       F  0.43808156  0.89605967  0.85015558    -0.11800
F2332       F  0.42269529  0.87162682  0.80458494    -0.14100
F2333       F  0.44188792  0.98127862  0.80052462    -0.14100
F2334       F  0.41806540  0.95786422  0.75771478    -0.11800
C2335       C  0.64240672  0.80138405  0.72367027     0.26300
C2336       C  0.65478435  0.82416770  0.71158288    -0.21800
C2337       C  0.67701893  0.82145493  0.69521461     0.21200
C2338       C  0.68727452  0.79586578  0.69141035     0.26200
C2339       C  0.67518827  0.77307081  0.70412453    -0.21800
C2340       C  0.65225845  0.77598634  0.71963701     0.21100
F2341       F  0.63924213  0.75427672  0.73095419    -0.11800
F2342       F  0.62218411  0.80381559  0.74131128    -0.14100
F2343       F  0.70926235  0.79345478  0.67596344    -0.14100
F2344       F  0.68925738  0.84359222  0.68388381    -0.11800
C2345       C  0.70985244  0.87577563  0.73949399     0.26300
C2346       C  0.68887303  0.85793356  0.74636487    -0.21800
C2347       C  0.69452369  0.83386594  0.76114602     0.21200
C2348       C  0.72090745  0.82698718  0.76778992     0.26200
C2349       C  0.74208831  0.84458329  0.76061649    -0.21800
C2350       C  0.73632218  0.86931935  0.74684121     0.21100
F2351       F  0.75632915  0.88682711  0.73984238    -0.11800
F2352       F  0.70464163  0.89921707  0.72536959    -0.14100
F2353       F  0.72566212  0.80346078  0.78200309    -0.14100
F2354       F  0.67436688  0.81724348  0.76956659    -0.11800
C2355       C  0.60296031  0.84700841  0.67451473     0.26300
C2356       C  0.59948775  0.84671495  0.70243640    -0.21800
C2357       C  0.57783064  0.83211312  0.71338106     0.21200
C2358       C  0.56045330  0.81749578  0.69679322     0.26200
C2359       C  0.56382479  0.81743103  0.66847479    -0.21800
C2360       C  0.58499724  0.83348419  0.65772189     0.21100
F2361       F  0.58756291  0.83802763  0.63090515    -0.11800
F2362       F  0.62356100  0.86128807  0.66328292    -0.14100
F2363       F  0.53904336  0.80507916  0.70848318    -0.14100
F2364       F  0.57373323  0.83150588  0.74027228    -0.11800
C2365       C  0.66493608  0.88833496  0.79582322     0.26300
C2366       C  0.65541333  0.89919422  0.77095334    -0.21800
C2367       C  0.66277984  0.92553763  0.76300502     0.21200
C2368       C  0.68025250  0.94046460  0.77894649     0.26200
C2369       C  0.68958530  0.93000696  0.80438589    -0.21800
C2370       C  0.68118933  0.90372837  0.81266423     0.21100
F2371       F  0.68894841  0.89250217  0.83678735    -0.11800
F2372       F  0.65928259  0.86228014  0.80338293    -0.14100
F2373       F  0.68948212  0.96423878  0.76809871    -0.14100
F2374       F  0.65518271  0.93588329  0.73840850    -0.11800
C2375       C  0.59073482  0.89138231  0.77759799     0.26300
C2376       C  0.59410697  0.88976418  0.74979551    -0.21800
C2377       C  0.57326612  0.89877360  0.73228094     0.21200
C2378       C  0.55023626  0.91031553  0.74254860     0.26200
C2379       C  0.54905772  0.91549777  0.77001092    -0.21800
C2380       C  0.56927039  0.90535239  0.78748953     0.21100
F2381       F  0.56923332  0.91043051  0.81407477    -0.11800
F2382       F  0.60818061  0.87956933  0.79544993    -0.14100
F2383       F  0.53017768  0.91859448  0.72545288    -0.14100
F2384       F  0.57575005  0.89796693  0.70525039    -0.11800
C2385       C  0.68149428  0.16219458  0.76626652     0.26300
C2386       C  0.68418544  0.14771049  0.74274541    -0.21800
C2387       C  0.69652311  0.15980918  0.72029801     0.21200
C2388       C  0.70576825  0.18636694  0.72117257     0.26200
C2389       C  0.70237346  0.20093896  0.74444322    -0.21800
C2390       C  0.69005800  0.18891108  0.76691738     0.21100
F2391       F  0.68623902  0.20310217  0.78929947    -0.11800
F2392       F  0.67120196  0.15012652  0.78879304    -0.14100
F2393       F  0.71711451  0.19827664  0.69905528    -0.14100
F2394       F  0.69999798  0.14563535  0.69788362    -0.11800
C2395       C  0.74342327  0.11632796  0.74992068     0.26300
C2396       C  0.72209371  0.11016763  0.76691334    -0.21800
C2397       C  0.72357054  0.11593817  0.79423926     0.21200
C2398       C  0.74637431  0.12783649  0.80457147     0.26200
C2399       C  0.76751381  0.13473074  0.78747975    -0.21800
C2400       C  0.76616637  0.12870664  0.76013934     0.21100
F2401       F  0.78628603  0.13587586  0.74316864    -0.11800
F2402       F  0.74168891  0.11134225  0.72334893    -0.14100
F2403       F  0.74770833  0.13280029  0.83117855    -0.14100
F2404       F  0.70234405  0.11172488  0.81057326    -0.11800
C2405       C  0.62231382  0.11042400  0.70586834     0.26300
C2406       C  0.63092047  0.11934470  0.73101620    -0.21800
C2407       C  0.61723012  0.14065931  0.74260267     0.21200
C2408       C  0.59487404  0.15208773  0.72976475     0.26200
C2409       C  0.58663743  0.14348523  0.70458998    -0.21800
C2410       C  0.60047182  0.12276665  0.69249183     0.21100
F2411       F  0.59291460  0.11480027  0.66773943    -0.11800
F2412       F  0.63573244  0.09051121  0.69388469    -0.14100
F2413       F  0.58175954  0.17244851  0.74135826    -0.14100
F2414       F  0.62513773  0.15057551  0.76635839    -0.11800
C2415       C  0.71941589  0.04418512  0.77454148     0.26300
C2416       C  0.69647680  0.05780681  0.78235610    -0.21800
C2417       C  0.68918810  0.05630945  0.80936958     0.21200
C2418       C  0.70533743  0.04260004  0.82853653     0.26200
C2419       C  0.72950711  0.02990007  0.82123638    -0.21800
C2420       C  0.73523821  0.02975855  0.79347950     0.21100
F2421       F  0.75462440  0.01370751  0.78412546    -0.11800
F2422       F  0.72630262  0.04459045  0.74826229    -0.14100
F2423       F  0.69600050  0.04049472  0.85393709    -0.14100
F2424       F  0.66705568  0.06930740  0.81756930    -0.11800
C2425       C  0.61387941  0.02247169  0.77681568     0.26300
C2426       C  0.59215698  0.03569459  0.78829090    -0.21800
C2427       C  0.59295424  0.06376745  0.79067971     0.21200
C2428       C  0.61477996  0.07835525  0.78132049     0.26200
C2429       C  0.63491468  0.06566009  0.76715407    -0.21800
C2430       C  0.63469260  0.03752064  0.76539035     0.21100
F2431       F  0.65467217  0.02466964  0.75290318    -0.11800
F2432       F  0.61490210  0.99504903  0.77666172    -0.14100
F2433       F  0.61701094  0.10450153  0.78788406    -0.14100
F2434       F  0.57281571  0.07727031  0.80216105    -0.11800
C2435       C  0.36345559  0.17166958  0.80513298     0.26300
C2436       C  0.36616725  0.14711453  0.79229978    -0.21800
C2437       C  0.34401260  0.13488780  0.78018939     0.21200
C2438       C  0.31890777  0.14671108  0.78182792     0.26200
C2439       C  0.31609959  0.17082370  0.79543591    -0.21800
C2440       C  0.33842088  0.18347927  0.80674092     0.21100
F2441       F  0.33557364  0.20599780  0.82111525    -0.11800
F2442       F  0.38490504  0.18340696  0.81718017    -0.14100
F2443       F  0.29717674  0.13431024  0.77095884    -0.14100
F2444       F  0.34680655  0.11171691  0.76682635    -0.11800
C2445       C  0.37538524  0.19933673  0.72484065     0.26300
C2446       C  0.38572390  0.22401074  0.73399640    -0.21800
C2447       C  0.40587970  0.22331416  0.75415043     0.21200
C2448       C  0.41461978  0.19867343  0.76555749     0.26200
C2449       C  0.40397762  0.17428362  0.75666622    -0.21800
C2450       C  0.38468727  0.17472259  0.73595645     0.21100
F2451       F  0.37414010  0.15121589  0.72731317    -0.11800
F2452       F  0.35555555  0.19890717  0.70588412    -0.14100
F2453       F  0.43222198  0.19863642  0.78656813    -0.14100
F2454       F  0.41689698  0.24644058  0.76324710    -0.11800
C2455       C  0.45256276  0.14166087  0.72481110     0.26300
C2456       C  0.45584226  0.14655864  0.75245555    -0.21800
C2457       C  0.47451569  0.16714062  0.75854685     0.21200
C2458       C  0.48802447  0.18286888  0.73804085     0.26200
C2459       C  0.48313161  0.17952625  0.71000941    -0.21800
C2460       C  0.46650236  0.15685888  0.70436971     0.21100
F2461       F  0.46448801  0.14809630  0.67905283    -0.11800
F2462       F  0.43521378  0.12201080  0.71733307    -0.14100
F2463       F  0.50689362  0.20074912  0.74605008    -0.14100
F2464       F  0.47948196  0.17252500  0.78464455    -0.11800
C2465       C  0.36882220  0.10167540  0.84001860     0.26300
C2466       C  0.39003417  0.09408491  0.82283819    -0.21800
C2467       C  0.39596097  0.06613223  0.82458206     0.21200
C2468       C  0.38231629  0.04747023  0.84224335     0.26200
C2469       C  0.35924887  0.05433686  0.85705987    -0.21800
C2470       C  0.35313308  0.08235214  0.85535926     0.21100
F2471       F  0.33194192  0.09151359  0.86905154    -0.11800
F2472       F  0.36374944  0.12809142  0.84355824    -0.14100
F2473       F  0.39313801  0.02268677  0.84543154    -0.14100
F2474       F  0.41484873  0.05604677  0.80868121    -0.11800
C2475       C  0.45956860  0.10183219  0.83205496     0.26300
C2476       C  0.45337562  0.09907513  0.80461741    -0.21800
C2477       C  0.46352207  0.07706252  0.79128658     0.21200
C2478       C  0.47713360  0.05650992  0.80588180     0.26200
C2479       C  0.48247261  0.05870855  0.83359708    -0.21800
C2480       C  0.47437088  0.08193520  0.84637004     0.21100
F2481       F  0.47946818  0.08455829  0.87298464    -0.11800
F2482       F  0.44989654  0.12307054  0.84529446    -0.14100
F2483       F  0.48413162  0.03383406  0.79326715    -0.14100
F2484       F  0.45740382  0.07386755  0.76496288    -0.11800
C2485       C  0.69992932  0.50041826  0.33647894     0.26300
C2486       C  0.71125491  0.49034930  0.31303297    -0.21800
C2487       C  0.73813863  0.48129182  0.31482445     0.21200
C2488       C  0.75284278  0.48197965  0.33919982     0.26200
C2489       C  0.74141843  0.49216921  0.36231345    -0.21800
C2490       C  0.71490428  0.50156876  0.36057901     0.21100
F2491       F  0.70307868  0.51095432  0.38265745    -0.11800
F2492       F  0.67390839  0.50820448  0.33656388    -0.14100
F2493       F  0.77848466  0.47295217  0.34020369    -0.14100
F2494       F  0.75057496  0.47229985  0.29289921    -0.11800
C2495       C  0.60751197  0.54535690  0.22172760     0.26300
C2496       C  0.62233642  0.53085816  0.24222914    -0.21800
C2497       C  0.61146314  0.53067608  0.26841756     0.21200
C2498       C  0.58879708  0.54610721  0.27411039     0.26200
C2499       C  0.57555239  0.56166803  0.25386495    -0.21800
C2500       C  0.58528641  0.56129142  0.22770399     0.21100
F2501       F  0.57290211  0.57610590  0.20766899    -0.11800
F2502       F  0.61291427  0.54265291  0.19541517    -0.14100
F2503       F  0.57963983  0.54574180  0.29963809    -0.14100
F2504       F  0.62102674  0.51365062  0.28823305    -0.11800
C2505       C  0.56112086  0.42192945  0.22719747     0.26300
C2506       C  0.57993831  0.43218301  0.24533642    -0.21800
C2507       C  0.57421492  0.43187268  0.27282072     0.21200
C2508       C  0.55058379  0.41994088  0.28225227     0.26200
C2509       C  0.53241894  0.40821628  0.26424255    -0.21800
C2510       C  0.53736322  0.41007895  0.23656466     0.21100
F2511       F  0.52018806  0.39865111  0.21886932    -0.11800
F2512       F  0.56587854  0.42351577  0.20044545    -0.14100
F2513       F  0.54597878  0.41860238  0.30907221    -0.14100
F2514       F  0.59172326  0.44298600  0.29041297    -0.11800
C2515       C  0.81967472  0.78476218  0.97382799     0.26300
C2516       C  0.84738312  0.78481886  0.98087690    -0.21800
C2517       C  0.85852862  0.80959755  0.98916344     0.21200
C2518       C  0.84275867  0.83315579  0.99016969     0.26200
C2519       C  0.81543420  0.83293632  0.98270739    -0.21800
C2520       C  0.80419004  0.80850653  0.97440433     0.21100
F2521       F  0.77792880  0.80762111  0.96694811    -0.11800
F2522       F  0.80703960  0.76163423  0.96704030    -0.14100
F2523       F  0.85447584  0.85652101  0.99767458    -0.14100
F2524       F  0.88499174  0.81143874  0.99553653    -0.11800
C2525       C  0.95341928  0.72405627  0.92526125     0.26300
C2526       C  0.95840306  0.69633286  0.92917503    -0.21800
C2527       C  0.98104830  0.68481628  0.91811680     0.21200
C2528       C  0.99852979  0.70110782  0.90283709     0.26200
C2529       C  0.99374727  0.72902630  0.89956218    -0.21800
C2530       C  0.97131042  0.74040438  0.91119168     0.21100
F2531       F  0.96733522  0.76752819  0.91003781    -0.11800
F2532       F  0.93200069  0.73546495  0.93680225    -0.14100
F2533       F  0.01987933  0.68972796  0.89118526    -0.14100
F2534       F  0.98638242  0.65815315  0.92265626    -0.11800
C2535       C  0.95135900  0.74063245  0.01882975     0.26300
C2536       C  0.93633579  0.71659983  0.02531006    -0.21800
C2537       C  0.94869682  0.69930307  0.04539731     0.21200
C2538       C  0.97318795  0.70632819  0.05912971     0.26200
C2539       C  0.98759750  0.73064699  0.05308721    -0.21800
C2540       C  0.97574657  0.74758581  0.03262627     0.21100
F2541       F  0.98760723  0.77168952  0.02620773    -0.11800
F2542       F  0.94306976  0.75753674  0.99833428    -0.14100
F2543       F  0.98247077  0.68938587  0.07920713    -0.14100
F2544       F  0.93701977  0.67514789  0.05194067    -0.11800
C2545       C  0.80063878  0.20290773  0.03329201     0.26300
C2546       C  0.82882452  0.20205708  0.03305035    -0.21800
C2547       C  0.84145651  0.17762274  0.02740818     0.21200
C2548       C  0.82614363  0.15472108  0.02138422     0.26200
C2549       C  0.79802297  0.15590661  0.02097367    -0.21800
C2550       C  0.78540933  0.18002389  0.02737272     0.21100
F2551       F  0.75824934  0.18144523  0.02734778    -0.11800
F2552       F  0.78791189  0.22616668  0.03878000    -0.14100
F2553       F  0.83867945  0.13130303  0.01615182    -0.14100
F2554       F  0.86858396  0.17637910  0.02634834    -0.11800
C2555       C  0.98457159  0.28270915  0.92062013     0.26300
C2556       C  0.00401880  0.26335850  0.92843720    -0.21800
C2557       C  0.00259048  0.25098347  0.95419215     0.21200
C2558       C  0.98142083  0.25671622  0.97129243     0.26200
C2559       C  0.96160261  0.27611706  0.96361074    -0.21800
C2560       C  0.96396040  0.28941554  0.93811197     0.21100
F2561       F  0.94635936  0.30895775  0.92994571    -0.11800
F2562       F  0.98530822  0.29486368  0.89572056    -0.14100
F2563       F  0.97959539  0.24173337  0.99459128    -0.14100
F2564       F  0.02047990  0.23154101  0.96200922    -0.11800
C2565       C  0.93478881  0.28489963  0.08250047     0.26300
C2566       C  0.92145388  0.26637270  0.06584504    -0.21800
C2567       C  0.93268946  0.24032249  0.06399824     0.21200
C2568       C  0.95466985  0.23239764  0.07997943     0.26200
C2569       C  0.96653449  0.25043032  0.09754282    -0.21800
C2570       C  0.95677461  0.27675914  0.09850681     0.21100
F2571       F  0.96853391  0.29459894  0.11508448    -0.11800
F2572       F  0.92785934  0.31135244  0.08230336    -0.14100
F2573       F  0.96470135  0.20712461  0.07801898    -0.14100
F2574       F  0.92367304  0.22302882  0.04538280    -0.11800
C2575       C  0.70778162  0.47848788  0.72207180     0.26300
C2576       C  0.71692220  0.49269381  0.74465618    -0.21800
C2577       C  0.74317838  0.50380927  0.74376957     0.21200
C2578       C  0.75871647  0.50232413  0.72071431     0.26200
C2579       C  0.74931678  0.48853547  0.69840749    -0.21800
C2580       C  0.72401266  0.47607060  0.69952391     0.21100
F2581       F  0.71434276  0.46281539  0.67808869    -0.11800
F2582       F  0.68273348  0.46779181  0.72097984    -0.14100
F2583       F  0.78324863  0.51435196  0.72012930    -0.14100
F2584       F  0.75439577  0.51573244  0.76527130    -0.11800
C2585       C  0.61080798  0.43890805  0.82361431     0.26300
C2586       C  0.62351257  0.45921076  0.80703300    -0.21800
C2587       C  0.61230784  0.46257368  0.78059109     0.21200
C2588       C  0.59081461  0.44617609  0.77111321     0.26200
C2589       C  0.57896048  0.42552104  0.78743914    -0.21800
C2590       C  0.58964320  0.42212888  0.81381622     0.21100
F2591       F  0.57903357  0.40279109  0.83063491    -0.11800
F2592       F  0.61758299  0.43598546  0.84999402    -0.14100
F2593       F  0.58158226  0.45061656  0.74556522    -0.14100
F2594       F  0.62143172  0.48275483  0.76383127    -0.11800
C2595       C  0.57964065  0.55787705  0.77828725     0.26300
C2596       C  0.58807873  0.56155415  0.80500060    -0.21800
C2597       C  0.57333718  0.57869014  0.82091560     0.21200
C2598       C  0.55065287  0.59217050  0.81016473     0.26200
C2599       C  0.54239385  0.58850782  0.78340914    -0.21800
C2600       C  0.55707935  0.57128085  0.76759662     0.21100
F2601       F  0.54989432  0.56801480  0.74152720    -0.11800
F2602       F  0.59348628  0.54131340  0.76251188    -0.14100
F2603       F  0.53742408  0.60968911  0.82545130    -0.14100
F2604       F  0.58065597  0.58188060  0.84693917    -0.11800
C2605       C  0.77679759  0.34969938  0.84007466     0.26300
C2606       C  0.75849947  0.34595293  0.86101862    -0.21800
C2607       C  0.73484137  0.33125805  0.85694417     0.21200
C2608       C  0.73024291  0.31907372  0.83257287     0.26200
C2609       C  0.74954257  0.32121375  0.81238012    -0.21800
C2610       C  0.77253956  0.33704331  0.81596887     0.21100
F2611       F  0.79055810  0.34056133  0.79595323    -0.11800
F2612       F  0.79983991  0.36381645  0.84396814    -0.14100
F2613       F  0.70714842  0.30499238  0.82866184    -0.14100
F2614       F  0.71740086  0.32701307  0.87734860    -0.11800
C2615       C  0.77921496  0.28640298  0.88259242     0.26300
C2616       C  0.79641632  0.30834701  0.88633957    -0.21800
C2617       C  0.82121781  0.30968707  0.87355450     0.21200
C2618       C  0.82890319  0.28888519  0.85723403     0.26200
C2619       C  0.81180481  0.26641348  0.85376451    -0.21800
C2620       C  0.78668424  0.26566767  0.86641259     0.21100
F2621       F  0.76928564  0.24474197  0.86345454    -0.11800
F2622       F  0.75505162  0.28508879  0.89478675    -0.14100
F2623       F  0.85321949  0.29055851  0.84537592    -0.14100
F2624       F  0.83754491  0.33150613  0.87624455    -0.11800
C2625       C  0.72152881  0.39510152  0.90745783     0.26300
C2626       C  0.74740094  0.39315520  0.89703256    -0.21800
C2627       C  0.75621709  0.41285076  0.87798965     0.21200
C2628       C  0.73943659  0.43424443  0.86956106     0.26200
C2629       C  0.71329203  0.43578747  0.87942141    -0.21800
C2630       C  0.70446023  0.41607274  0.89842846     0.21100
F2631       F  0.67913925  0.41704161  0.90791749    -0.11800
F2632       F  0.71244724  0.37605782  0.92553880    -0.14100
F2633       F  0.74814119  0.45265342  0.85068105    -0.14100
F2634       F  0.78080582  0.41099459  0.86699458    -0.11800
C2635       C  0.81353735  0.30083375  0.94892729     0.26300
C2636       C  0.81490546  0.32863924  0.94231154    -0.21800
C2637       C  0.83716355  0.34334094  0.95167476     0.21200
C2638       C  0.85459563  0.33174674  0.97099702     0.26200
C2639       C  0.85161045  0.30446160  0.97949106    -0.21800
C2640       C  0.83338497  0.28855082  0.96502310     0.21100
F2641       F  0.83663493  0.26152340  0.96339011    -0.11800
F2642       F  0.79319437  0.28530380  0.93965399    -0.14100
F2643       F  0.87482378  0.34704106  0.98098590    -0.14100
F2644       F  0.84318139  0.36819996  0.94120123    -0.11800
C2645       C  0.78098252  0.38271672  0.97316481     0.26300
C2646       C  0.78741957  0.38546673  0.94588917    -0.21800
C2647       C  0.80486185  0.40590429  0.93673587     0.21200
C2648       C  0.81697410  0.42265806  0.95482870     0.26200
C2649       C  0.80975639  0.42105364  0.98194366    -0.21800
C2650       C  0.79144171  0.40115363  0.99112086     0.21100
F2651       F  0.78330845  0.40002506  0.01703008    -0.11800
F2652       F  0.76460675  0.36241510  0.98219862    -0.14100
F2653       F  0.83534710  0.44112546  0.94579503    -0.14100
F2654       F  0.81251925  0.40763709  0.91070373    -0.11800
C2655       C  0.76932762  0.63806723  0.81370441     0.26300
C2656       C  0.75058426  0.63665724  0.83439227    -0.21800
C2657       C  0.72367474  0.64264925  0.82866359     0.21200
C2658       C  0.71575325  0.65114086  0.80268078     0.26200
C2659       C  0.73483458  0.65408248  0.78205989    -0.21800
C2660       C  0.76164717  0.64683473  0.78780398     0.21100
F2661       F  0.78068310  0.64888473  0.76863265    -0.11800
F2662       F  0.79540644  0.63191559  0.81901373    -0.14100
F2663       F  0.68943155  0.65663794  0.79787875    -0.14100
F2664       F  0.70541800  0.64188598  0.84857083    -0.11800
C2665       C  0.76731234  0.69480577  0.85213021     0.26300
C2666       C  0.78639045  0.67582405  0.86204674    -0.21800
C2667       C  0.81375908  0.68160281  0.85805400     0.21200
C2668       C  0.82176690  0.70570281  0.84465958     0.26200
C2669       C  0.80263066  0.72387488  0.83357107    -0.21800
C2670       C  0.77531759  0.71822558  0.83744456     0.21100
F2671       F  0.75643401  0.73596037  0.82797543    -0.11800
F2672       F  0.74085863  0.69087448  0.85699108    -0.14100
F2673       F  0.84835375  0.71101551  0.84193195    -0.14100
F2674       F  0.83282986  0.66344817  0.86597840    -0.11800
C2675       C  0.74644486  0.56419911  0.85093610     0.26300
C2676       C  0.73835713  0.58492796  0.86776262    -0.21800
C2677       C  0.71071389  0.58459184  0.87418233     0.21200
C2678       C  0.69212102  0.56522863  0.86371259     0.26200
C2679       C  0.69996340  0.54481943  0.84602835    -0.21800
C2680       C  0.72819788  0.54404573  0.84155584     0.21100
F2681       F  0.73883914  0.52306995  0.82877968    -0.11800
F2682       F  0.77232711  0.56338442  0.84313285    -0.14100
F2683       F  0.66641892  0.56602291  0.87207886    -0.14100
F2684       F  0.70139412  0.60332540  0.89081003    -0.11800
C2685       C  0.83529994  0.63689958  0.92072165     0.26300
C2686       C  0.80944805  0.64816104  0.91704540    -0.21800
C2687       C  0.80425068  0.67115819  0.93202775     0.21200
C2688       C  0.82392748  0.68253906  0.94947722     0.26200
C2689       C  0.85084871  0.67293778  0.95150001    -0.21800
C2690       C  0.85531033  0.64872004  0.93748915     0.21100
F2691       F  0.87858459  0.63497386  0.94104829    -0.11800
F2692       F  0.84167266  0.61445549  0.90749671    -0.14100
F2693       F  0.81570646  0.70210054  0.96565826    -0.14100
F2694       F  0.77943847  0.68226434  0.93059254    -0.11800
C2695       C  0.77981046  0.59300864  0.94509326     0.26300
C2696       C  0.78383352  0.58924414  0.91774341    -0.21800
C2697       C  0.80156500  0.56924801  0.90985877     0.21200
C2698       C  0.81552462  0.55349954  0.92920710     0.26200
C2699       C  0.81188706  0.55760201  0.95663714    -0.21800
C2700       C  0.79358397  0.57718410  0.96442751     0.21100
F2701       F  0.78901957  0.58100720  0.99074045    -0.11800
F2702       F  0.76331903  0.61281979  0.95300434    -0.14100
F2703       F  0.83285694  0.53444624  0.92126024    -0.14100
F2704       F  0.80707159  0.56652344  0.88354518    -0.11800
C2705       C  0.70849085  0.64987549  0.17223628     0.26300
C2706       C  0.72659252  0.63049922  0.16419585    -0.21800
C2707       C  0.74263026  0.61652087  0.18356366     0.21200
C2708       C  0.74346210  0.62477927  0.20994850     0.26200
C2709       C  0.72801098  0.64688201  0.21724308    -0.21800
C2710       C  0.70910952  0.65807713  0.19859357     0.21100
F2711       F  0.69221590  0.67805840  0.20528319    -0.11800
F2712       F  0.69253615  0.66314186  0.15379282    -0.14100
F2713       F  0.76124979  0.61278670  0.22749643    -0.14100
F2714       F  0.76093453  0.59819598  0.17618166    -0.11800
C2715       C  0.77657989  0.67380159  0.16231516     0.26300
C2716       C  0.75721117  0.67624483  0.14168629    -0.21800
C2717       C  0.74661290  0.70137316  0.13395381     0.21200
C2718       C  0.75764792  0.72452599  0.14449105     0.26200
C2719       C  0.77978379  0.72223403  0.16234236    -0.21800
C2720       C  0.78772360  0.69679296  0.17281785     0.21100
F2721       F  0.80807061  0.69419856  0.19117721    -0.11800
F2722       F  0.78695540  0.64939201  0.16997943    -0.14100
F2723       F  0.74876164  0.74898644  0.13487146    -0.14100
F2724       F  0.72723452  0.70342942  0.11457853    -0.11800
C2725       C  0.72613833  0.54173681  0.15165116     0.26300
C2726       C  0.69824614  0.54378843  0.15510237    -0.21800
C2727       C  0.68405780  0.56438965  0.14107987     0.21200
C2728       C  0.69782239  0.58441250  0.12643122     0.26200
C2729       C  0.72595946  0.58412469  0.12558364    -0.21800
C2730       C  0.73992710  0.56174208  0.13673308     0.21100
F2731       F  0.76707461  0.56088326  0.13628251    -0.11800
F2732       F  0.74045442  0.52210340  0.16505637    -0.14100
F2733       F  0.68391164  0.60570343  0.11535703    -0.14100
F2734       F  0.65699933  0.56603394  0.14298681    -0.11800
C2735       C  0.81124295  0.66414341  0.10191519     0.26300
C2736       C  0.78495824  0.66135549  0.09151248    -0.21800
C2737       C  0.77916037  0.67147802  0.06548610     0.21200
C2738       C  0.79967513  0.68161356  0.04916655     0.26200
C2739       C  0.82665466  0.68038322  0.05818886    -0.21800
C2740       C  0.83201829  0.67301583  0.08520078     0.21100
F2741       F  0.85758277  0.67216819  0.09489364    -0.11800
F2742       F  0.81750148  0.65670487  0.12762708    -0.14100
F2743       F  0.79322213  0.69156479  0.02412918    -0.14100
F2744       F  0.75370877  0.67045627  0.05548286    -0.11800
C2745       C  0.77631704  0.58705083  0.06848020     0.26300
C2746       C  0.77940692  0.60040877  0.09239788    -0.21800
C2747       C  0.80375035  0.59879952  0.10695608     0.21200
C2748       C  0.82583074  0.58650989  0.09625274     0.26200
C2749       C  0.82258477  0.57193865  0.07301597    -0.21800
C2750       C  0.79748256  0.57182100  0.05942050     0.21100
F2751       F  0.79301588  0.55568357  0.03843542    -0.11800
F2752       F  0.75267371  0.58795269  0.05460936    -0.14100
F2753       F  0.84947810  0.58601536  0.11013872    -0.14100
F2754       F  0.80557823  0.60790587  0.13222255    -0.11800
C2755       C  0.78624522  0.31618537  0.19230366     0.26300
C2756       C  0.77288827  0.32297969  0.16801285    -0.21800
C2757       C  0.76690254  0.30305080  0.14970599     0.21200
C2758       C  0.77354317  0.27628571  0.15593760     0.26200
C2759       C  0.78549259  0.26922013  0.18093184    -0.21800
C2760       C  0.79185187  0.28929676  0.19911577     0.21100
F2761       F  0.80394049  0.28295698  0.22314569    -0.11800
F2762       F  0.79385559  0.33564935  0.20930178    -0.14100
F2763       F  0.76731629  0.25713406  0.13805988    -0.14100
F2764       F  0.75388264  0.30948057  0.12623296    -0.11800
C2765       C  0.72225460  0.33170517  0.20673610     0.26300
C2766       C  0.73839467  0.35497258  0.20408503    -0.21800
C2767       C  0.74745806  0.36792150  0.22714087     0.21200
C2768       C  0.74010112  0.35810715  0.25247131     0.26200
C2769       C  0.72438722  0.33466523  0.25518467    -0.21800
C2770       C  0.71543840  0.32143170  0.23228230     0.21100
F2771       F  0.69956148  0.29910120  0.23469828    -0.11800
F2772       F  0.71326424  0.31898199  0.18467588    -0.14100
F2773       F  0.74914009  0.37092522  0.27447557    -0.14100
F2774       F  0.76487710  0.38905538  0.22524564    -0.11800
C2775       C  0.73862467  0.43375708  0.19397777     0.26300
C2776       C  0.72911356  0.41192272  0.17943405    -0.21800
C2777       C  0.70130594  0.40700829  0.17870493     0.21200
C2778       C  0.68335271  0.42348282  0.19198790     0.26200
C2779       C  0.69270850  0.44469219  0.20802931    -0.21800
C2780       C  0.72082824  0.44971647  0.20820489     0.21100
F2781       F  0.73111352  0.47131044  0.22086409    -0.11800
F2782       F  0.76528685  0.43926182  0.19507973    -0.14100
F2783       F  0.65687455  0.41947554  0.18722207    -0.14100
F2784       F  0.69133503  0.38625053  0.16449086    -0.11800
C2785       C  0.78646365  0.35427270  0.09626185     0.26300
C2786       C  0.79470796  0.35869346  0.12278935    -0.21800
C2787       C  0.82150447  0.35328667  0.13013140     0.21200
C2788       C  0.83961235  0.34346171  0.11143032     0.26200
C2789       C  0.83117806  0.33750949  0.08497813    -0.21800
C2790       C  0.80411873  0.34339196  0.07776608     0.21100
F2791       F  0.79396831  0.33762362  0.05327145    -0.11800
F2792       F  0.76070508  0.35935366  0.08853386    -0.14100
F2793       F  0.86556953  0.34020031  0.11933593    -0.14100
F2794       F  0.83023623  0.35752709  0.15555532    -0.11800
C2795       C  0.77305531  0.42723676  0.11120553     0.26300
C2796       C  0.77992217  0.41641457  0.13662988    -0.21800
C2797       C  0.80573189  0.42086756  0.14749183     0.21200
C2798       C  0.82531926  0.43380547  0.13187818     0.26200
C2799       C  0.81892904  0.44296594  0.10563489    -0.21800
C2800       C  0.79236123  0.44075372  0.09586391     0.21100
F2801       F  0.78539040  0.45095797  0.07104534    -0.11800
F2802       F  0.74836060  0.42265421  0.10041946    -0.14100
F2803       F  0.85057985  0.43668361  0.14193353    -0.14100
F2804       F  0.81260631  0.41017560  0.17216496    -0.11800
C2805       C  0.23437452  0.23024462  0.02003301     0.26300
C2806       C  0.20764254  0.22530622  0.01171838    -0.21800
C2807       C  0.20022600  0.19872189  0.00559399     0.21200
C2808       C  0.21882121  0.17758281  0.00848704     0.26200
C2809       C  0.24500569  0.18246401  0.01817322    -0.21800
C2810       C  0.25268438  0.20900154  0.02341414     0.21100
F2811       F  0.27821469  0.21431263  0.03149267    -0.11800
F2812       F  0.24306099  0.25576912  0.02430977    -0.14100
F2813       F  0.21100470  0.15235068  0.00213399    -0.14100
F2814       F  0.17475541  0.19298688  0.99761992    -0.11800
C2815       C  0.06459469  0.29277934  0.08619501     0.26300
C2816       C  0.07095786  0.28009904  0.06223359    -0.21800
C2817       C  0.05671804  0.25618761  0.05616175     0.21200
C2818       C  0.03720524  0.24525597  0.07367907     0.26200
C2819       C  0.03153431  0.25764224  0.09778600    -0.21800
C2820       C  0.04535278  0.28154065  0.10381236     0.21100
F2821       F  0.04028781  0.29398278  0.12696839    -0.11800
F2822       F  0.07680587  0.31631648  0.09249754    -0.14100
F2823       F  0.02473021  0.22175032  0.06768902    -0.14100
F2824       F  0.06248240  0.24245805  0.03397824    -0.11800
C2825       C  0.10533979  0.25413049  0.96330868     0.26300
C2826       C  0.11388309  0.28158931  0.96172300    -0.21800
C2827       C  0.09872129  0.29940918  0.94448405     0.21200
C2828       C  0.07728874  0.28995532  0.92858294     0.26200
C2829       C  0.07009167  0.26248297  0.92939791    -0.21800
C2830       C  0.08450742  0.24469114  0.94675950     0.21100
F2831       F  0.07795282  0.21800059  0.94815145    -0.11800
F2832       F  0.11553223  0.23651118  0.98226645    -0.14100
F2833       F  0.06384010  0.30767301  0.91187927    -0.14100
F2834       F  0.10376015  0.32639089  0.94376516    -0.11800
C2835       C  0.31762322  0.50762200  0.72255337     0.26300
C2836       C  0.34572763  0.51097322  0.72229378    -0.21800
C2837       C  0.35844175  0.51462650  0.69734870     0.21200
C2838       C  0.34344142  0.51426167  0.67325014     0.26200
C2839       C  0.31555945  0.51021071  0.67367433    -0.21800
C2840       C  0.30274896  0.50722704  0.69847698     0.21100
F2841       F  0.27576553  0.50375847  0.69928809    -0.11800
F2842       F  0.30447272  0.50524435  0.74618275    -0.14100
F2843       F  0.35603652  0.51805609  0.64945249    -0.14100
F2844       F  0.38545250  0.51777020  0.69631441    -0.11800
C2845       C  0.47619910  0.46243697  0.77611510     0.26300
C2846       C  0.46908612  0.45820068  0.80316035    -0.21800
C2847       C  0.48439791  0.44088286  0.82007028     0.21200
C2848       C  0.50610675  0.42713187  0.80980461     0.26200
C2849       C  0.51246024  0.43050976  0.78248660    -0.21800
C2850       C  0.49762802  0.44845400  0.76577041     0.21100
F2851       F  0.50328862  0.45156656  0.73925151    -0.11800
F2852       F  0.46182178  0.47957209  0.75963330    -0.14100
F2853       F  0.51982576  0.40919181  0.82604039    -0.14100
F2854       F  0.47816125  0.43728407  0.84638808    -0.11800
C2855       C  0.43874189  0.57372588  0.81236541     0.26300
C2856       C  0.42825895  0.55498231  0.79399587    -0.21800
C2857       C  0.44340168  0.55151311  0.77043996     0.21200
C2858       C  0.46656890  0.56697917  0.76495777     0.26200
C2859       C  0.47547114  0.58677689  0.78242919    -0.21800
C2860       C  0.46113685  0.59013565  0.80604545     0.21100
F2861       F  0.46899187  0.60933953  0.82324474    -0.11800
F2862       F  0.42860499  0.57532014  0.83729241    -0.14100
F2863       F  0.48013659  0.56292552  0.74206071    -0.14100
F2864       F  0.43719836  0.53158865  0.75347851    -0.11800
C2865       C  0.23345852  0.80564446  0.00479978     0.26300
C2866       C  0.20578178  0.80241022  0.01058008    -0.21800
C2867       C  0.19119439  0.82648820  0.01413022     0.21200
C2868       C  0.20389338  0.85231846  0.01296470     0.26200
C2869       C  0.23154385  0.85529518  0.00773981    -0.21800
C2870       C  0.24593871  0.83149979  0.00328262     0.21100
F2871       F  0.27263226  0.83307992  0.99872374    -0.11800
F2872       F  0.24905513  0.78366613  0.00173607    -0.14100
F2873       F  0.18903625  0.87463059  0.01695133    -0.14100
F2874       F  0.16439106  0.82523364  0.01825331    -0.11800
C2875       C  0.07493385  0.70910118  0.06980813     0.26300
C2876       C  0.06144153  0.73329305  0.06232684    -0.21800
C2877       C  0.07676196  0.75350676  0.04886987     0.21200
C2878       C  0.10411431  0.74978848  0.04284763     0.26200
C2879       C  0.11807970  0.72552079  0.05024751    -0.21800
C2880       C  0.10226742  0.70502186  0.06340311     0.21100
F2881       F  0.11276899  0.68023067  0.06917187    -0.11800
F2882       F  0.06171770  0.68938531  0.08407826    -0.14100
F2883       F  0.11596698  0.76934433  0.02731995    -0.14100
F2884       F  0.06526444  0.77768030  0.04213056    -0.11800
C2885       C  0.07822731  0.74271219  0.95183005     0.26300
C2886       C  0.09626654  0.72160524  0.94659261    -0.21800
C2887       C  0.09447386  0.70966487  0.92144173     0.21200
C2888       C  0.07521847  0.71855112  0.90217524     0.26200
C2889       C  0.05684778  0.73887599  0.90801002    -0.21800
C2890       C  0.05839364  0.75065909  0.93303877     0.21100
F2891       F  0.04128789  0.77077138  0.93888139    -0.11800
F2892       F  0.08037146  0.75664080  0.97467914    -0.14100
F2893       F  0.07448322  0.70732460  0.87776964    -0.14100
F2894       F  0.11107080  0.68915471  0.91565476    -0.11800
C2895       C  0.26417873  0.70623679  0.90441270     0.26300
C2896       C  0.24679680  0.68437221  0.90106744    -0.21800
C2897       C  0.22330061  0.68702899  0.88582028     0.21200
C2898       C  0.21840015  0.71110780  0.87152992     0.26200
C2899       C  0.23736411  0.73234504  0.87243141    -0.21800
C2900       C  0.25958255  0.73021340  0.89009171     0.21100
F2901       F  0.27785491  0.75051172  0.89225855    -0.11800
F2902       F  0.28716616  0.70334651  0.91920741    -0.14100
F2903       F  0.19566226  0.71321987  0.85625658    -0.14100
F2904       F  0.20623792  0.66575575  0.88335032    -0.11800
C2905       C  0.30105988  0.67010239  0.85761691     0.26300
C2906       C  0.27833358  0.65422447  0.86303983    -0.21800
C2907       C  0.26059306  0.64803804  0.84212559     0.21200
C2908       C  0.26571764  0.65734756  0.81577794     0.26200
C2909       C  0.28881242  0.67310673  0.81005598    -0.21800
C2910       C  0.30638447  0.67938478  0.83145261     0.21100
F2911       F  0.32920143  0.69392909  0.82714607    -0.11800
F2912       F  0.31803957  0.67678483  0.87784512    -0.14100
F2913       F  0.24815535  0.65076014  0.79597767    -0.14100
F2914       F  0.23847681  0.63271728  0.84730877    -0.11800
C2915       C  0.25098050  0.67840229  0.97150746     0.26300
C2916       C  0.24347962  0.65666950  0.95565045    -0.21800
C2917       C  0.21635707  0.64908677  0.95488130     0.21200
C2918       C  0.19693277  0.66366510  0.96820701     0.26200
C2919       C  0.20377172  0.68713974  0.98236855    -0.21800
C2920       C  0.23155121  0.69289423  0.98533370     0.21100
F2921       F  0.24019710  0.71185021  0.00239142    -0.11800
F2922       F  0.27710010  0.68607834  0.97308564    -0.14100
F2923       F  0.17143642  0.65397850  0.96768794    -0.14100
F2924       F  0.20842488  0.62793581  0.94006650    -0.11800
C2925       C  0.34923251  0.59409157  0.87837988     0.26300
C2926       C  0.33801632  0.57156591  0.86582169    -0.21800
C2927       C  0.31018451  0.56686577  0.86756606     0.21200
C2928       C  0.29395913  0.58462497  0.88101511     0.26200
C2929       C  0.30512291  0.60732827  0.89289807    -0.21800
C2930       C  0.33288064  0.61188893  0.89176057     0.21100
F2931       F  0.34411120  0.63377709  0.90312999    -0.11800
F2932       F  0.37606821  0.59874098  0.87787033    -0.14100
F2933       F  0.26712256  0.57999920  0.88202434    -0.14100
F2934       F  0.29842666  0.54579260  0.85525869    -0.11800
C2935       C  0.32005074  0.61982417  0.95964139     0.26300
C2936       C  0.29405802  0.61165184  0.95211300    -0.21800
C2937       C  0.28660238  0.58444394  0.95486481     0.21200
C2938       C  0.30498949  0.56541572  0.96467943     0.26200
C2939       C  0.33120502  0.57337640  0.97173687    -0.21800
C2940       C  0.33873753  0.60067835  0.96900647     0.21100
F2941       F  0.36362931  0.60878129  0.97676833    -0.11800
F2942       F  0.32773596  0.64609974  0.95621073    -0.14100
F2943       F  0.29699952  0.53923827  0.96807653    -0.14100
F2944       F  0.26203723  0.57614861  0.94627527    -0.11800
C2945       C  0.24331757  0.31392780  0.82585624     0.26300
C2946       C  0.24934717  0.29347279  0.84534021    -0.21800
C2947       C  0.25914156  0.30056572  0.87073658     0.21200
C2948       C  0.26382629  0.32755753  0.87622589     0.26200
C2949       C  0.25789110  0.34804424  0.85676580    -0.21800
C2950       C  0.24713108  0.34108137  0.83172613     0.21100
F2951       F  0.24062516  0.36060404  0.81287042    -0.11800
F2952       F  0.23318469  0.30767273  0.80142282    -0.14100
F2953       F  0.27574964  0.33346150  0.89996345    -0.14100
F2954       F  0.26524304  0.28123444  0.88995618    -0.11800
C2955       C  0.31429306  0.35584264  0.82665452     0.26300
C2956       C  0.29775196  0.37856693  0.82302829    -0.21800
C2957       C  0.29262869  0.38958081  0.79725490     0.21200
C2958       C  0.30266472  0.37710176  0.77499824     0.26200
C2959       C  0.31815618  0.35337645  0.77833864    -0.21800
C2960       C  0.32443307  0.34323394  0.80444474     0.21100
F2961       F  0.33963745  0.32073120  0.80847670    -0.11800
F2962       F  0.32011634  0.34566960  0.85175772    -0.14100
F2963       F  0.29731162  0.38837829  0.75020472    -0.14100
F2964       F  0.27700161  0.41183060  0.79371341    -0.11800
C2965       C  0.24878316  0.37561651  0.93259002     0.26300
C2966       C  0.24177838  0.38187336  0.90555975    -0.21800
C2967       C  0.21503847  0.37691561  0.89739014     0.21200
C2968       C  0.19609889  0.36546996  0.91528782     0.26200
C2969       C  0.20321724  0.35807845  0.94210685    -0.21800
C2970       C  0.22996528  0.36366268  0.95049594     0.21100
F2971       F  0.23862612  0.35627761  0.97564429    -0.11800
F2972       F  0.27432254  0.37931924  0.94141628    -0.14100
F2973       F  0.17057612  0.36190534  0.90625613    -0.14100
F2974       F  0.20717121  0.38306862  0.87166785    -0.11800
C2975       C  0.30670250  0.45514328  0.83393676     0.26300
C2976       C  0.31372159  0.43096679  0.84777218    -0.21800
C2977       C  0.34106099  0.42538984  0.85211468     0.21200
C2978       C  0.36095692  0.44417166  0.84392378     0.26200
C2979       C  0.35423459  0.46819503  0.82886338    -0.21800
C2980       C  0.32648842  0.47315218  0.82418069     0.21100
F2981       F  0.31825164  0.49625404  0.81100148    -0.11800
F2982       F  0.28045691  0.46140855  0.82983598    -0.14100
F2983       F  0.38634165  0.43916361  0.85251523    -0.14100
F2984       F  0.34864780  0.40190431  0.86491180    -0.11800
C2985       C  0.31629701  0.41367414  0.91550741     0.26300
C2986       C  0.29292322  0.42577936  0.90460633    -0.21800
C2987       C  0.28661886  0.45233684  0.91056623     0.21200
C2988       C  0.30271211  0.46613137  0.92867528     0.26200
C2989       C  0.32562709  0.45364287  0.94023186    -0.21800
C2990       C  0.33297929  0.42781148  0.93262446     0.21100
F2991       F  0.35479289  0.41535981  0.94398443    -0.11800
F2992       F  0.32274692  0.38796126  0.90965608    -0.14100
F2993       F  0.29496671  0.49083447  0.93645105    -0.14100
F2994       F  0.26470592  0.46459693  0.89925859    -0.11800
C2995       C  0.33798901  0.45421672  0.33364260     0.26300
C2996       C  0.32767766  0.46769702  0.31013182    -0.21800
C2997       C  0.30136193  0.47826891  0.31112400     0.21200
C2998       C  0.28681527  0.47691355  0.33507008     0.26200
C2999       C  0.29744571  0.46399233  0.35838433    -0.21800
C3000       C  0.32280208  0.45192700  0.35721100     0.21100
F3001       F  0.33332925  0.43873675  0.37928356    -0.11800
F3002       F  0.36320045  0.44410639  0.33438998    -0.14100
F3003       F  0.26196868  0.48790580  0.33545344    -0.14100
F3004       F  0.28921117  0.48945975  0.28884792    -0.11800
C3005       C  0.43061657  0.43882852  0.26771775     0.26300
C3006       C  0.41674844  0.43526245  0.24292032    -0.21800
C3007       C  0.42831352  0.41676484  0.22542967     0.21200
C3008       C  0.45159553  0.40184372  0.23302912     0.26200
C3009       C  0.46535720  0.40605104  0.25748400    -0.21800
C3010       C  0.45458446  0.42500057  0.27447967     0.21100
F3011       F  0.46691246  0.42956630  0.29835999    -0.11800
F3012       F  0.42214005  0.45751107  0.28483137    -0.14100
F3013       F  0.46080710  0.38313288  0.21630208    -0.14100
F3014       F  0.41799791  0.41368974  0.20041598    -0.11800
C3015       C  0.50123350  0.53573596  0.26819273     0.26300
C3016       C  0.50827389  0.56014975  0.25486895    -0.21800
C3017       C  0.49184277  0.57033217  0.23364193     0.21200
C3018       C  0.46834241  0.55674042  0.22623326     0.26200
C3019       C  0.46071447  0.53268967  0.23996530    -0.21800
C3020       C  0.47760787  0.52216441  0.26096060     0.21100
F3021       F  0.47063902  0.49942795  0.27542197    -0.11800
F3022       F  0.51640035  0.52583813  0.28917929    -0.14100
F3023       F  0.45305128  0.56703841  0.20556968    -0.14100
F3024       F  0.49802816  0.59427200  0.22088320    -0.11800
C3025       C  0.21548475  0.26844112  0.15138497     0.26300
C3026       C  0.20434442  0.26746898  0.17720440    -0.21800
C3027       C  0.19296104  0.29091870  0.18703550     0.21200
C3028       C  0.19534955  0.31549032  0.17244180     0.26200
C3029       C  0.20963400  0.31687308  0.14832152    -0.21800
C3030       C  0.21813114  0.29297213  0.13706312     0.21100
F3031       F  0.23187099  0.29363004  0.11376085    -0.11800
F3032       F  0.22449967  0.24568133  0.14020812    -0.14100
F3033       F  0.18630525  0.33844590  0.18318155    -0.14100
F3034       F  0.18118036  0.29042623  0.21143725    -0.11800
C3035       C  0.24404346  0.34818469  0.20713905     0.26300
C3036       C  0.25208863  0.33910851  0.18235762    -0.21800
C3037       C  0.26873139  0.31638174  0.18128930     0.21200
C3038       C  0.27755557  0.30297629  0.20495993     0.26200
C3039       C  0.26990969  0.31237484  0.22985582    -0.21800
C3040       C  0.25290979  0.33490809  0.23081460     0.21100
F3041       F  0.24542897  0.34436288  0.25477611    -0.11800
F3042       F  0.22782076  0.37000333  0.20826631    -0.14100
F3043       F  0.29492377  0.28206875  0.20364403    -0.14100
F3044       F  0.27688973  0.30773488  0.15725291    -0.11800
C3045       C  0.32632821  0.39711130  0.16297724     0.26300
C3046       C  0.32018144  0.42173620  0.17468309    -0.21800
C3047       C  0.29291265  0.42874710  0.17696231     0.21200
C3048       C  0.27256501  0.41202844  0.16708297     0.26200
C3049       C  0.27882150  0.38770784  0.15520934    -0.21800
C3050       C  0.30583159  0.38004656  0.15380604     0.21100
F3051       F  0.31242362  0.35598728  0.14369970    -0.11800
F3052       F  0.35224297  0.38982747  0.15988199    -0.14100
F3053       F  0.24657141  0.41952152  0.16927822    -0.14100
F3054       F  0.28574114  0.45136423  0.18948242    -0.11800
C3055       C  0.16654229  0.34241759  0.06885022     0.26300
C3056       C  0.17784428  0.32757057  0.04815322    -0.21800
C3057       C  0.20622936  0.32596215  0.04779456     0.21200
C3058       C  0.22209781  0.33525828  0.06906595     0.26200
C3059       C  0.21025761  0.34703937  0.09108170    -0.21800
C3060       C  0.18244577  0.35122867  0.09035700     0.21100
F3061       F  0.17068031  0.36452243  0.11032931    -0.11800
F3062       F  0.14051779  0.35013465  0.06769556    -0.14100
F3063       F  0.24898447  0.33152892  0.06861134    -0.14100
F3064       F  0.21889319  0.31535344  0.02675292    -0.11800
C3065       C  0.25545449  0.41392436  0.09045691     0.26300
C3066       C  0.26196128  0.38687176  0.09632165    -0.21800
C3067       C  0.28691131  0.37675083  0.08888149     0.21200
C3068       C  0.30602166  0.39407380  0.07749453     0.26200
C3069       C  0.29995436  0.42139094  0.07274384    -0.21800
C3070       C  0.27431181  0.43111186  0.07835547     0.21100
F3071       F  0.26777552  0.45727770  0.07233143    -0.11800
F3072       F  0.23157582  0.42396166  0.09803038    -0.14100
F3073       F  0.33058333  0.38446384  0.07159760    -0.14100
F3074       F  0.29341588  0.35052053  0.09455290    -0.11800
C3075       C  0.26097003  0.66836883  0.16172957     0.26300
C3076       C  0.24873772  0.64800997  0.17801268    -0.21800
C3077       C  0.22709103  0.65479478  0.19397551     0.21200
C3078       C  0.21793547  0.68157664  0.19376065     0.26200
C3079       C  0.23014979  0.70191027  0.17735322    -0.21800
C3080       C  0.25166287  0.69500132  0.16126415     0.21100
F3081       F  0.26445418  0.71427352  0.14601053    -0.11800
F3082       F  0.28226229  0.66243257  0.14642757    -0.14100
F3083       F  0.19686246  0.68765611  0.20932023    -0.14100
F3084       F  0.21444269  0.63540954  0.20921168    -0.11800
C3085       C  0.30184788  0.63307739  0.21863904     0.26300
C3086       C  0.28288966  0.61215785  0.21786713    -0.21800
C3087       C  0.27868831  0.59518802  0.24070203     0.21200
C3088       C  0.29355797  0.59899328  0.26413300     0.26200
C3089       C  0.31229404  0.62010963  0.26482463    -0.21800
C3090       C  0.31620881  0.63730624  0.24215234     0.21100
F3091       F  0.33453913  0.65771565  0.24266189    -0.11800
F3092       F  0.30774007  0.64813759  0.19614860    -0.14100
F3093       F  0.28931254  0.58261141  0.28620729    -0.14100
F3094       F  0.26080623  0.57445509  0.23982182    -0.11800
C3095       C  0.25092688  0.63009218  0.10424071     0.26300
C3096       C  0.23848984  0.61812083  0.12689162    -0.21800
C3097       C  0.21047817  0.62123550  0.12907162     0.21200
C3098       C  0.19540167  0.63626438  0.10947776     0.26200
C3099       C  0.20793673  0.64933338  0.08729357    -0.21800
C3100       C  0.23605952  0.64568969  0.08495860     0.21100
F3101       F  0.24973428  0.65837152  0.06473463    -0.11800
F3102       F  0.27786519  0.62823385  0.10155473    -0.14100
F3103       F  0.16842964  0.63772276  0.11212858    -0.14100
F3104       F  0.19765480  0.60991669  0.15061784    -0.11800
C3105       C  0.29543513  0.53728593  0.20080283     0.26300
C3106       C  0.30279924  0.56320554  0.19094956    -0.21800
C3107       C  0.33044041  0.56952651  0.19094785     0.21200
C3108       C  0.35006193  0.54989420  0.19845691     0.26200
C3109       C  0.34286291  0.52391182  0.20932833    -0.21800
C3110       C  0.31481075  0.51844152  0.21052425     0.21100
F3111       F  0.30578833  0.49418333  0.22044855    -0.11800
F3112       F  0.26913518  0.53011179  0.20121735    -0.14100
F3113       F  0.37586100  0.55624222  0.19310711    -0.14100
F3114       F  0.33876593  0.59468780  0.18303698    -0.11800
C3115       C  0.32992872  0.56468635  0.11473792     0.26300
C3116       C  0.32070978  0.54071527  0.10367280    -0.21800
C3117       C  0.29408105  0.53197083  0.10789406     0.21200
C3118       C  0.27695055  0.54715948  0.12299357     0.26200
C3119       C  0.28582207  0.57179959  0.13251777    -0.21800
C3120       C  0.31204641  0.58095304  0.12757318     0.21100
F3121       F  0.32032762  0.60556316  0.13564472    -0.11800
F3122       F  0.35534996  0.57366039  0.11039280    -0.14100
F3123       F  0.25181898  0.53795730  0.12833861    -0.14100
F3124       F  0.28437567  0.50943026  0.09640853    -0.11800
C3125       C  0.00630395  0.19283501  0.22668468     0.26300
C3126       C  0.00496615  0.16449324  0.22434458    -0.21800
C3127       C  0.00395483  0.15417043  0.19838064     0.21200
C3128       C  0.00332221  0.17169561  0.17549841     0.26200
C3129       C  0.00356078  0.19984246  0.17802637    -0.21800
C3130       C  0.00547326  0.21027114  0.20373854     0.21100
F3131       F  0.00610483  0.23742247  0.20657130    -0.11800
F3132       F  0.00859955  0.20371169  0.25118274    -0.14100
F3133       F  0.00218418  0.16122173  0.15077305    -0.14100
F3134       F  0.00232953  0.12711317  0.19515342    -0.11800
C3135       C  0.03264983  0.05467501  0.25854502     0.26300
C3136       C  0.03421920  0.06362414  0.28548335    -0.21800
C3137       C  0.05041952  0.04665670  0.30297661     0.21200
C3138       C  0.06550873  0.02408848  0.29380575     0.26200
C3139       C  0.06512002  0.01643655  0.26659018    -0.21800
C3140       C  0.04818573  0.03254555  0.24934423     0.21100
F3141       F  0.04658882  0.02687019  0.22295078    -0.11800
F3142       F  0.01505808  0.06644368  0.24077727    -0.14100
F3143       F  0.08142577  0.01015632  0.31175363    -0.14100
F3144       F  0.05177103  0.05179396  0.32949179    -0.11800
C3145       C  0.92539572  0.99097079  0.31335448     0.26300
C3146       C  0.89960209  0.99932577  0.30423587    -0.21800
C3147       C  0.88957937  0.02306608  0.31509912     0.21200
C3148       C  0.90722000  0.04205595  0.32563087     0.26200
C3149       C  0.93467293  0.03586864  0.32837646    -0.21800
C3150       C  0.94220970  0.00884109  0.32634767     0.21100
F3151       F  0.96706046  0.00043459  0.33430875    -0.11800
F3152       F  0.93572113  0.96646629  0.30936206    -0.14100
F3153       F  0.89746208  0.06662952  0.33132028    -0.14100
F3154       F  0.86294158  0.02839348  0.31480708    -0.11800
C3155       C  0.66875992  0.31311347  0.52775647     0.26300
C3156       C  0.66830735  0.28704408  0.54025251    -0.21800
C3157       C  0.69292411  0.27525128  0.54777889     0.21200
C3158       C  0.71740431  0.28838661  0.54173294     0.26200
C3159       C  0.71822488  0.31480475  0.52922667    -0.21800
C3160       C  0.69321663  0.32703407  0.52284383     0.21100
F3161       F  0.69221755  0.35259502  0.51203792    -0.11800
F3162       F  0.64530640  0.32507718  0.52013796    -0.14100
F3163       F  0.74019666  0.27420062  0.54692716    -0.14100
F3164       F  0.69330144  0.24996531  0.55940987    -0.11800
C3165       C  0.76349682  0.44118365  0.46409534     0.26300
C3166       C  0.78312749  0.45407462  0.44789991    -0.21800
C3167       C  0.80704219  0.43959972  0.44455237     0.21200
C3168       C  0.81101794  0.41330534  0.45644988     0.26200
C3169       C  0.79101527  0.39967086  0.47206039    -0.21800
C3170       C  0.76750900  0.41503249  0.47635044     0.21100
F3171       F  0.74882272  0.40569214  0.49389179    -0.11800
F3172       F  0.73992589  0.45394651  0.46786448    -0.14100
F3173       F  0.83526148  0.40166601  0.45340678    -0.14100
F3174       F  0.82651256  0.45063344  0.42875765    -0.11800
C3175       C  0.82533074  0.42807991  0.59763267     0.26300
C3176       C  0.80933629  0.42766472  0.57407484    -0.21800
C3177       C  0.78732855  0.44520974  0.57114138     0.21200
C3178       C  0.78133636  0.46256756  0.59143482     0.26200
C3179       C  0.79654719  0.46193948  0.61537910    -0.21800
C3180       C  0.81871730  0.44488640  0.61832160     0.21100
F3181       F  0.83374203  0.44439939  0.64128899    -0.11800
F3182       F  0.84719923  0.41199757  0.60067711    -0.14100
F3183       F  0.75908430  0.47813560  0.58874370    -0.14100
F3184       F  0.77037704  0.44423536  0.54963826    -0.11800
C3185       C  0.04569336  0.21181089  0.79995171     0.26300
C3186       C  0.03803220  0.18414318  0.79949479    -0.21800
C3187       C  0.02895250  0.17193815  0.82399653     0.21200
C3188       C  0.02773062  0.18675143  0.84770998     0.26200
C3189       C  0.03650984  0.21386403  0.84808010    -0.21800
C3190       C  0.04554623  0.22606799  0.82391232     0.21100
F3191       F  0.05357367  0.25233025  0.82336175    -0.11800
F3192       F  0.05247522  0.22569995  0.77702075    -0.14100
F3193       F  0.01859953  0.17434204  0.87059873    -0.14100
F3194       F  0.02189147  0.14541266  0.82538120    -0.11800
C3195       C  0.11571934  0.05833369  0.69168488     0.26300
C3196       C  0.09931683  0.07174043  0.70925085    -0.21800
C3197       C  0.10223158  0.06759341  0.73707065     0.21200
C3198       C  0.12154928  0.05011094  0.74743148     0.26200
C3199       C  0.13869135  0.03727628  0.73006093    -0.21800
C3200       C  0.13546725  0.04094422  0.70212410     0.21100
F3201       F  0.15159946  0.02797102  0.68517999    -0.11800
F3202       F  0.11244278  0.06209938  0.66471104    -0.14100
F3203       F  0.12268034  0.04493901  0.77429910    -0.14100
F3204       F  0.08624396  0.08065209  0.75410247    -0.11800
C3205       C  0.98905410  0.05615179  0.76007695     0.26300
C3206       C  0.97350326  0.04240765  0.74083993    -0.21800
C3207       C  0.97155191  0.05542416  0.71509115     0.21200
C3208       C  0.98409898  0.08102576  0.70909105     0.26200
C3209       C  0.99897869  0.09547564  0.72866665    -0.21800
C3210       C  0.00201304  0.08139786  0.75403428     0.21100
F3211       F  0.01879502  0.09109361  0.77302031    -0.11800
F3212       F  0.99171761  0.04500548  0.78531175    -0.14100
F3213       F  0.98220703  0.09128844  0.68349141    -0.14100
F3214       F  0.95643300  0.04385845  0.69575846    -0.11800
C3215       C  0.89113492  0.23575676  0.68775624     0.26300
C3216       C  0.87636704  0.22235251  0.66793382    -0.21800
C3217       C  0.85679029  0.20341475  0.67595810     0.21200
C3218       C  0.85193415  0.19793939  0.70323020     0.26200
C3219       C  0.86664582  0.21134277  0.72327567    -0.21800
C3220       C  0.88633491  0.23033093  0.71514242     0.21100
F3221       F  0.90110771  0.24354542  0.73364220    -0.11800
F3222       F  0.90920395  0.25523481  0.68063394    -0.14100
F3223       F  0.83230729  0.17986796  0.70993513    -0.14100
F3224       F  0.84195108  0.19053592  0.65724973    -0.11800
C3225       C  0.81796369  0.28045454  0.67544414     0.26300
C3226       C  0.79308496  0.26796990  0.67134311    -0.21800
C3227       C  0.78920938  0.25006644  0.65042290     0.21200
C3228       C  0.81064921  0.24366861  0.63452074     0.26200
C3229       C  0.83557732  0.25557814  0.63923120    -0.21800
C3230       C  0.83908279  0.27457389  0.65905122     0.21100
F3231       F  0.86325364  0.28667385  0.66286586    -0.11800
F3232       F  0.82153197  0.29880290  0.69474695    -0.14100
F3233       F  0.80754675  0.22521798  0.61527264    -0.14100
F3234       F  0.76492810  0.23837542  0.64592557    -0.11800
C3235       C  0.92489410  0.18909404  0.63084684     0.26300
C3236       C  0.92534740  0.21746658  0.63043866    -0.21800
C3237       C  0.94743869  0.23095878  0.64137485     0.21200
C3238       C  0.96799202  0.21626597  0.65427397     0.26200
C3239       C  0.96703485  0.18775135  0.65586481    -0.21800
C3240       C  0.94573177  0.17430861  0.64320406     0.21100
F3241       F  0.94489112  0.14689450  0.64315709    -0.11800
F3242       F  0.90363051  0.17573816  0.62021735    -0.14100
F3243       F  0.98775954  0.23005792  0.66690681    -0.14100
F3244       F  0.94814901  0.25832047  0.64162270    -0.11800
C3245       C  0.85937365  0.30457524  0.58939848     0.26300
C3246       C  0.85415582  0.27715651  0.58586782    -0.21800
C3247       C  0.83645220  0.26982310  0.56528697     0.21200
C3248       C  0.82409214  0.28974330  0.54855863     0.26200
C3249       C  0.83014913  0.31755832  0.55122801    -0.21800
C3250       C  0.84947080  0.32422337  0.57108264     0.21100
F3251       F  0.86122352  0.34893571  0.57160315    -0.11800
F3252       F  0.87450948  0.31255994  0.61045044    -0.14100
F3253       F  0.80744289  0.28162883  0.52859758    -0.14100
F3254       F  0.83141287  0.24331685  0.56114117    -0.11800
C3255       C  0.92458094  0.28660012  0.58950656     0.26300
C3256       C  0.91341499  0.26166358  0.58263177    -0.21800
C3257       C  0.91815361  0.25139818  0.55742622     0.21200
C3258       C  0.93507973  0.26541557  0.53965738     0.26200
C3259       C  0.94644881  0.29029471  0.54669281    -0.21800
C3260       C  0.94008092  0.30138348  0.57118146     0.21100
F3261       F  0.95115410  0.32523673  0.57831251    -0.11800
F3262       F  0.92134067  0.29617487  0.61435578    -0.14100
F3263       F  0.94178287  0.25394187  0.51643493    -0.14100
F3264       F  0.90720961  0.22741895  0.55052971    -0.11800
C3265       C  0.85081085  0.17869523  0.34010854     0.26300
C3266       C  0.86580812  0.20253149  0.34153090    -0.21800
C3267       C  0.86326882  0.22332802  0.32174131     0.21200
C3268       C  0.84667493  0.21987045  0.29985055     0.26200
C3269       C  0.83290275  0.19548089  0.29750771    -0.21800
C3270       C  0.83445350  0.17497950  0.31770978     0.21100
F3271       F  0.82119194  0.15117455  0.31502460    -0.11800
F3272       F  0.85213066  0.15934325  0.36018362    -0.14100
F3273       F  0.84569723  0.23934606  0.27983273    -0.14100
F3274       F  0.87762034  0.24664549  0.32340944    -0.11800
C3275       C  0.81779249  0.22211405  0.38387703     0.26300
C3276       C  0.84047647  0.23823172  0.37812108    -0.21800
C3277       C  0.83660511  0.26483860  0.36767521     0.21200
C3278       C  0.81077037  0.27524277  0.36358743     0.26200
C3279       C  0.78816158  0.25907926  0.36900731    -0.21800
C3280       C  0.79179782  0.23241225  0.37924114     0.21100
F3281       F  0.77021212  0.21641600  0.38474514    -0.11800
F3282       F  0.82090532  0.19644479  0.39398952    -0.14100
F3283       F  0.80778008  0.30108578  0.35382332    -0.14100
F3284       F  0.85785210  0.28046710  0.36032509    -0.11800
C3285       C  0.94477355  0.17070390  0.37197620     0.26300
C3286       C  0.92718985  0.18801570  0.35681435    -0.21800
C3287       C  0.92686714  0.18406952  0.32868212     0.21200
C3288       C  0.94239827  0.16382790  0.31666991     0.26200
C3289       C  0.96153166  0.14780023  0.33141255    -0.21800
C3290       C  0.96105237  0.15094145  0.35976757     0.21100
F3291       F  0.97575942  0.13405828  0.37619753    -0.11800
F3292       F  0.94554181  0.17207870  0.39911412    -0.14100
F3293       F  0.93654743  0.15862072  0.29074445    -0.14100
F3294       F  0.91190990  0.20022540  0.31194859    -0.11800
C3295       C  0.86409873  0.25247209  0.43844250     0.26300
C3296       C  0.88059765  0.25965832  0.41668147    -0.21800
C3297       C  0.88536309  0.28754829  0.41105103     0.21200
C3298       C  0.87324312  0.30749859  0.42638995     0.26200
C3299       C  0.85609981  0.30010393  0.44766893    -0.21800
C3300       C  0.85204480  0.27222433  0.45361765     0.21100
F3301       F  0.83552770  0.26396171  0.47377035    -0.11800
F3302       F  0.85871070  0.22598744  0.44436999    -0.14100
F3303       F  0.87836446  0.33402771  0.42054797    -0.14100
F3304       F  0.90034557  0.29569937  0.38972976    -0.11800
C3305       C  0.94281794  0.23539233  0.42714990     0.26300
C3306       C  0.93625784  0.23843792  0.39982819    -0.21800
C3307       C  0.94593305  0.26089208  0.38468278     0.21200
C3308       C  0.95972199  0.28152694  0.39743939     0.26200
C3309       C  0.96536499  0.27896794  0.42509344    -0.21800
C3310       C  0.95766108  0.25527855  0.43961215     0.21100
F3311       F  0.96418384  0.25163353  0.46604599    -0.11800
F3312       F  0.93269892  0.21434819  0.44221708    -0.14100
F3313       F  0.96754169  0.30396997  0.38297314    -0.14100
F3314       F  0.93911266  0.26435214  0.35827776    -0.11800
C3315       C  0.36249437  0.29852782  0.50979652     0.26300
C3316       C  0.36144268  0.27158417  0.50172584    -0.21800
C3317       C  0.33611098  0.25945743  0.49798773     0.21200
C3318       C  0.31241535  0.27359434  0.50316146     0.26200
C3319       C  0.31353965  0.30037236  0.51162596    -0.21800
C3320       C  0.33879503  0.31286786  0.51432159     0.21100
F3321       F  0.34044666  0.33872486  0.52229660    -0.11800
F3322       F  0.38657558  0.31059217  0.51419406    -0.14100
F3323       F  0.28832530  0.26112380  0.50006197    -0.14100
F3324       F  0.33448002  0.23322698  0.49114694    -0.11800
C3325       C  0.26422709  0.40104150  0.47911289     0.26300
C3326       C  0.24081356  0.38493343  0.47659700    -0.21800
C3327       C  0.22223239  0.39251480  0.45578536     0.21200
C3328       C  0.22765391  0.41430929  0.43774394     0.26200
C3329       C  0.25047631  0.43051460  0.44114598    -0.21800
C3330       C  0.26843322  0.42398290  0.46228301     0.21100
F3331       F  0.29098576  0.43904342  0.46572239    -0.11800
F3332       F  0.28238997  0.39565544  0.49915100    -0.14100
F3333       F  0.21036260  0.41981589  0.41695384    -0.14100
F3334       F  0.19812717  0.38002436  0.45328614    -0.11800
C3335       C  0.22938331  0.44236733  0.59022515     0.26300
C3336       C  0.24515374  0.42686062  0.57364968    -0.21800
C3337       C  0.27134823  0.43572881  0.56769220     0.21200
C3338       C  0.28172175  0.45940409  0.57840308     0.26200
C3339       C  0.26604979  0.47492957  0.59510508    -0.21800
C3340       C  0.23972692  0.46624277  0.60086965     0.21100
F3341       F  0.22455545  0.48013519  0.61793835    -0.11800
F3342       F  0.20388340  0.43452003  0.59575701    -0.14100
F3343       F  0.30739113  0.46685108  0.57303548    -0.14100
F3344       F  0.28695611  0.42118652  0.55157027    -0.11800
C3345       C  0.18164420  0.16540949  0.35086686     0.26300
C3346       C  0.15961069  0.17994882  0.35941300    -0.21800
C3347       C  0.14259729  0.19309774  0.34028087     0.21200
C3348       C  0.14805220  0.19244535  0.31316408     0.26200
C3349       C  0.17100695  0.17927675  0.30464823    -0.21800
C3350       C  0.18755806  0.16529748  0.32368110     0.21100
F3351       F  0.21006685  0.15245661  0.31618690    -0.11800
F3352       F  0.19850870  0.15301369  0.36906174    -0.14100
F3353       F  0.13120368  0.20550007  0.29537743    -0.14100
F3354       F  0.12296690  0.20988833  0.34770818    -0.11800
C3355       C  0.22556656  0.20858414  0.39623237     0.26300
C3356       C  0.19984539  0.21373401  0.38595521    -0.21800
C3357       C  0.19619666  0.23021182  0.36254143     0.21200
C3358       C  0.21810613  0.23993474  0.34852011     0.26200
C3359       C  0.24386208  0.23444381  0.35852882    -0.21800
C3360       C  0.24764755  0.21912156  0.38265879     0.21100
F3361       F  0.27263340  0.21447542  0.39298334    -0.11800
F3362       F  0.22907500  0.19364535  0.41944485    -0.14100
F3363       F  0.21415113  0.25619394  0.32618980    -0.14100
F3364       F  0.17143893  0.23814870  0.35406432    -0.11800
C3365       C  0.18576811  0.23224487  0.46252486     0.26300
C3366       C  0.17802250  0.23603102  0.43553238    -0.21800
C3367       C  0.17845390  0.26232003  0.42367496     0.21200
C3368       C  0.18352651  0.28458325  0.43918650     0.26200
C3369       C  0.19032575  0.28108228  0.46654369    -0.21800
C3370       C  0.19258002  0.25445873  0.47778322     0.21100
F3371       F  0.20163202  0.24968784  0.50332533    -0.11800
F3372       F  0.18657423  0.20695849  0.47414233    -0.14100
F3373       F  0.18044854  0.30967615  0.42757416    -0.14100
F3374       F  0.17239593  0.26697527  0.39738325    -0.11800
C3375       C  0.06865887  0.17483540  0.36731771     0.26300
C3376       C  0.07068340  0.14709369  0.36204215    -0.21800
C3377       C  0.09215780  0.13231456  0.37361799     0.21200
C3378       C  0.11182727  0.14532164  0.38879077     0.26200
C3379       C  0.11001393  0.17313362  0.39352603    -0.21800
C3380       C  0.08734576  0.18732933  0.38382923     0.21100
F3381       F  0.08458049  0.21410986  0.38723434    -0.11800
F3382       F  0.04970439  0.19067345  0.35489996    -0.14100
F3383       F  0.13348845  0.13099270  0.39789867    -0.14100
F3384       F  0.09433788  0.10538831  0.37007771    -0.11800
C3385       C  0.11059154  0.22603422  0.45590586     0.26300
C3386       C  0.12034065  0.22601437  0.42987369    -0.21800
C3387       C  0.11804737  0.24938113  0.41289345     0.21200
C3388       C  0.10796007  0.27309013  0.42251584     0.26200
C3389       C  0.09635695  0.27261352  0.44784460    -0.21800
C3390       C  0.09753265  0.24884394  0.46444143     0.21100
F3391       F  0.08490879  0.24734619  0.48831459    -0.11800
F3392       F  0.11365994  0.20405470  0.47284948    -0.14100
F3393       F  0.10673779  0.29566055  0.40610572    -0.14100
F3394       F  0.12616160  0.24922613  0.38702479    -0.11800
C3395       C  0.17185076  0.20298067  0.69683683     0.26300
C3396       C  0.16761168  0.22995600  0.68862571    -0.21800
C3397       C  0.17210174  0.25091366  0.70625364     0.21200
C3398       C  0.18300737  0.24515574  0.73145708     0.26200
C3399       C  0.18806042  0.21834379  0.73942091    -0.21800
C3400       C  0.18177958  0.19709276  0.72257569     0.21100
F3401       F  0.18624257  0.17096159  0.73074590    -0.11800
F3402       F  0.16741969  0.18273605  0.67967624    -0.14100
F3403       F  0.18852949  0.26556185  0.74815124    -0.14100
F3404       F  0.16637840  0.27693397  0.69877797    -0.11800
C3405       C  0.22691591  0.24229453  0.65398304     0.26300
C3406       C  0.20555908  0.26062849  0.65280550    -0.21800
C3407       C  0.21050029  0.28767021  0.65882144     0.21200
C3408       C  0.23621451  0.29625752  0.66626963     0.26200
C3409       C  0.25796047  0.27803693  0.66740338    -0.21800
C3410       C  0.25293773  0.25089603  0.66092331     0.21100
F3411       F  0.27310915  0.23259443  0.66130346    -0.11800
F3412       F  0.22255572  0.21612824  0.64793764    -0.14100
F3413       F  0.23968238  0.32262202  0.67213419    -0.14100
F3414       F  0.19017532  0.30577911  0.65798660    -0.11800
C3415       C  0.08755465  0.17493247  0.66243743     0.26300
C3416       C  0.07499589  0.18086369  0.68708882    -0.21800
C3417       C  0.07955024  0.20758790  0.69572747     0.21200
C3418       C  0.09885920  0.22520308  0.68329032     0.26200
C3419       C  0.11300872  0.21784414  0.66037000    -0.21800
C3420       C  0.10648041  0.19264065  0.64990888     0.21100
F3421       F  0.11898854  0.18469548  0.62757036    -0.11800
F3422       F  0.08094992  0.15221450  0.64944819    -0.14100
F3423       F  0.10335324  0.24987222  0.69347584    -0.14100
F3424       F  0.06421610  0.21768391  0.71507494    -0.11800
C3425       C  0.17239014  0.30596918  0.59968405     0.26300
C3426       C  0.17763308  0.27815286  0.60162809    -0.21800
C3427       C  0.19805497  0.26816103  0.58572984     0.21200
C3428       C  0.21290174  0.28546697  0.56831736     0.26200
C3429       C  0.20863208  0.31384195  0.56687952    -0.21800
C3430       C  0.18715943  0.32339126  0.58237162     0.21100
F3431       F  0.17916102  0.34951903  0.57999719    -0.11800
F3432       F  0.15320404  0.31661086  0.61501642    -0.14100
F3433       F  0.22964120  0.27378814  0.55113376    -0.14100
F3434       F  0.20324170  0.24123462  0.58657649    -0.11800
C3435       C  0.11348112  0.24794893  0.58219594     0.26300
C3436       C  0.11711879  0.25942492  0.60711303    -0.21800
C3437       C  0.10328948  0.28298302  0.61314158     0.21200
C3438       C  0.08696263  0.29586971  0.59364407     0.26200
C3439       C  0.08381999  0.28476685  0.56832621    -0.21800
C3440       C  0.09649805  0.26027579  0.56306548     0.21100
F3441       F  0.09233726  0.24827266  0.53941990    -0.11800
F3442       F  0.12687496  0.22519919  0.57624786    -0.14100
F3443       F  0.07441656  0.31919466  0.59927043    -0.14100
F3444       F  0.10674669  0.29416585  0.63740885    -0.11800
C3445       C  0.18028716  0.98241361  0.18075080     0.26300
C3446       C  0.20444603  0.98788230  0.19511055    -0.21800
C3447       C  0.20152426  0.99394813  0.22265245     0.21200
C3448       C  0.17600672  0.99490956  0.23479067     0.26200
C3449       C  0.15230991  0.98904168  0.22044380    -0.21800
C3450       C  0.15492515  0.98257738  0.19331262     0.21100
F3451       F  0.13268027  0.97628122  0.17881068    -0.11800
F3452       F  0.18081834  0.97716698  0.15428341    -0.14100
F3453       F  0.17455221  0.00053152  0.26115659    -0.14100
F3454       F  0.22332867  0.99783785  0.23862088    -0.11800
C3455       C  0.33089192  0.07642290  0.08235858     0.26300
C3456       C  0.31030948  0.05818981  0.08964730    -0.21800
C3457       C  0.28380874  0.06384941  0.08136675     0.21200
C3458       C  0.27796795  0.08684769  0.06557672     0.26200
C3459       C  0.29834099  0.10523263  0.05828462    -0.21800
C3460       C  0.32494843  0.09978493  0.06647264     0.21100
F3461       F  0.34501238  0.11706897  0.05910697    -0.11800
F3462       F  0.35657474  0.07139204  0.09032582    -0.14100
F3463       F  0.25242464  0.09051073  0.05652545    -0.14100
F3464       F  0.26335374  0.04713881  0.08894950    -0.11800
C3465       C  0.29913207  0.94017311  0.09225667     0.26300
C3466       C  0.27934282  0.95482598  0.10606333    -0.21800
C3467       C  0.25645233  0.96242409  0.09019161     0.21200
C3468       C  0.25254034  0.95365450  0.06348968     0.26200
C3469       C  0.27130667  0.93702332  0.05114037    -0.21800
C3470       C  0.29459133  0.93048406  0.06618409     0.21100
F3471       F  0.31313409  0.91413834  0.05566009    -0.11800
F3472       F  0.32395081  0.93630711  0.10304767    -0.14100
F3473       F  0.22983670  0.96102326  0.04979577    -0.14100
F3474       F  0.23825650  0.97960161  0.09991423    -0.11800
C3475       C  0.54725394  0.69359823  0.29359202     0.26300
C3476       C  0.54269298  0.69442225  0.32133103    -0.21800
C3477       C  0.53868187  0.66990378  0.33611031     0.21200
C3478       C  0.53807090  0.64519806  0.32316969     0.26200
C3479       C  0.54175148  0.64452343  0.29529603    -0.21800
C3480       C  0.54694445  0.66887762  0.28073573     0.21100
F3481       F  0.55095904  0.66872243  0.25387516    -0.11800
F3482       F  0.55198203  0.71683783  0.27899239    -0.14100
F3483       F  0.53398463  0.62186659  0.33781553    -0.14100
F3484       F  0.53424897  0.67001608  0.36290481    -0.11800
C3485       C  0.44149945  0.78719742  0.44567810     0.26300
C3486       C  0.46712497  0.77564059  0.44397449    -0.21800
C3487       C  0.47656336  0.75931148  0.46624867     0.21200
C3488       C  0.46146224  0.75563167  0.48953209     0.26200
C3489       C  0.43562688  0.76618407  0.49063875    -0.21800
C3490       C  0.42575986  0.78203670  0.46851599     0.21100
F3491       F  0.40044665  0.79196085  0.46877809    -0.11800
F3492       F  0.43146406  0.80324052  0.42525654    -0.14100
F3493       F  0.47113440  0.73937814  0.50998180    -0.14100
F3494       F  0.49958408  0.74499620  0.46507813    -0.11800
C3495       C  0.58834384  0.78279500  0.41700344     0.26300
C3496       C  0.56798484  0.76544948  0.40708864    -0.21800
C3497       C  0.56403740  0.74053808  0.42169621     0.21200
C3498       C  0.58054219  0.73270514  0.44377599     0.26200
C3499       C  0.60195305  0.74910863  0.45195343    -0.21800
C3500       C  0.60571005  0.77419499  0.43828386     0.21100
F3501       F  0.62593081  0.79078957  0.44598911    -0.11800
F3502       F  0.59049389  0.80883947  0.40787881    -0.14100
F3503       F  0.57592956  0.70857379  0.45688165    -0.14100
F3504       F  0.54330140  0.72398919  0.41528381    -0.11800
C3505       C  0.78946849  0.98336253  0.21274834     0.26300
C3506       C  0.79446461  0.99449271  0.18665898    -0.21800
C3507       C  0.82070962  0.00335079  0.18072368     0.21200
C3508       C  0.84140066  0.00020708  0.20020102     0.26200
C3509       C  0.83624188  0.98720021  0.22527545    -0.21800
C3510       C  0.81022449  0.97888065  0.23125114     0.21100
F3511       F  0.80489834  0.96664786  0.25547871    -0.11800
F3512       F  0.76430897  0.97693558  0.22075108    -0.14100
F3513       F  0.86652514  0.00908361  0.19440655    -0.14100
F3514       F  0.82649249  0.01408759  0.15598716    -0.11800
C3515       C  0.75592772  0.03890855  0.08267878     0.26300
C3516       C  0.73068907  0.04239520  0.09504917    -0.21800
C3517       C  0.71319368  0.06149744  0.08222836     0.21200
C3518       C  0.72109397  0.07711469  0.05920107     0.26200
C3519       C  0.74622627  0.07344306  0.04728205    -0.21800
C3520       C  0.76348278  0.05421801  0.05956539     0.21100
F3521       F  0.78837358  0.05080469  0.04969720    -0.11800
F3522       F  0.77294865  0.01917659  0.09167977    -0.14100
F3523       F  0.70414249  0.09621921  0.04863445    -0.14100
F3524       F  0.68798602  0.06466366  0.09134215    -0.11800
C3525       C  0.75729125  0.95244544  0.04134386     0.26300
C3526       C  0.73544468  0.94207876  0.05681841    -0.21800
C3527       C  0.72642239  0.91575214  0.05105555     0.21200
C3528       C  0.73856640  0.90063721  0.03088551     0.26200
C3529       C  0.75991869  0.91129671  0.01521588    -0.21800
C3530       C  0.76897642  0.93747813  0.02083384     0.21100
F3531       F  0.79016869  0.94820982  0.00727687    -0.11800
F3532       F  0.76850211  0.97668532  0.04677671    -0.14100
F3533       F  0.72920088  0.87535852  0.02653136    -0.14100
F3534       F  0.70544862  0.90463690  0.06465433    -0.11800
C3535       C  0.73449338  0.86291707  0.24462473     0.26300
C3536       C  0.71205024  0.86624160  0.22755361    -0.21800
C3537       C  0.71282026  0.85802171  0.20109140     0.21200
C3538       C  0.73569417  0.84587144  0.19183955     0.26200
C3539       C  0.75789677  0.84142710  0.20920696    -0.21800
C3540       C  0.75735642  0.85043543  0.23553377     0.21100
F3541       F  0.77884779  0.84713300  0.25238644    -0.11800
F3542       F  0.73383703  0.87092559  0.27035270    -0.14100
F3543       F  0.73547954  0.83703557  0.16637768    -0.14100
F3544       F  0.69073652  0.85968307  0.18490779    -0.11800
C3545       C  0.68022993  0.81053461  0.24865554     0.26300
C3546       C  0.68162010  0.83152089  0.26661502    -0.21800
C3547       C  0.69237087  0.82659130  0.29250414     0.21200
C3548       C  0.70218284  0.80089209  0.30018391     0.26200
C3549       C  0.70107181  0.77976916  0.28202667    -0.21800
C3550       C  0.68970449  0.78488446  0.25623870     0.21100
F3551       F  0.68809087  0.76516894  0.23809007    -0.11800
F3552       F  0.66969477  0.81506347  0.22361629    -0.14100
F3553       F  0.71216963  0.79654691  0.32548106    -0.14100
F3554       F  0.69388000  0.84685974  0.31002077    -0.11800
C3555       C  0.66818705  0.91534207  0.18355806     0.26300
C3556       C  0.67851227  0.91717474  0.20993779    -0.21800
C3557       C  0.69606417  0.93836975  0.21545183     0.21200
C3558       C  0.70175230  0.95823265  0.19566566     0.26200
C3559       C  0.69449619  0.95493699  0.16827311    -0.21800
C3560       C  0.67685038  0.93340370  0.16268835     0.21100
F3561       F  0.66669836  0.93066958  0.13754702    -0.11800
F3562       F  0.64989300  0.89587240  0.17796639    -0.14100
F3563       F  0.71387931  0.98123567  0.20367041    -0.14100
F3564       F  0.70728762  0.94031059  0.24031613    -0.11800
C3565       C  0.61449418  0.83678461  0.27218889     0.26300
C3566       C  0.62988370  0.85881976  0.28087481    -0.21800
C3567       C  0.62497239  0.86907989  0.30617774     0.21200
C3568       C  0.60504053  0.85739007  0.32257131     0.26200
C3569       C  0.58936217  0.83568464  0.31366709    -0.21800
C3570       C  0.59420328  0.82550231  0.28833917     0.21100
F3571       F  0.57972867  0.80417793  0.27962364    -0.11800
F3572       F  0.61859272  0.82676082  0.24764528    -0.14100
F3573       F  0.60083669  0.86728417  0.34715282    -0.14100
F3574       F  0.63973967  0.89011366  0.31512451    -0.11800
C3575       C  0.60178976  0.90721778  0.24982479     0.26300
C3576       C  0.62853595  0.91562741  0.24995930    -0.21800
C3577       C  0.63501791  0.94227023  0.25666551     0.21200
C3578       C  0.61484560  0.96003092  0.26342398     0.26200
C3579       C  0.58843865  0.95053328  0.26607111    -0.21800
C3580       C  0.58235747  0.92356211  0.25995936     0.21100
F3581       F  0.55790741  0.91240308  0.26490193    -0.11800
F3582       F  0.59459071  0.88256503  0.24108206    -0.14100
F3583       F  0.62129671  0.98602019  0.26865936    -0.14100
F3584       F  0.66080022  0.95064152  0.25865684    -0.11800
C3585       C  0.33227093  0.81545817  0.26146664     0.26300
C3586       C  0.35219831  0.81641108  0.24177673    -0.21800
C3587       C  0.34460351  0.81482654  0.21457021     0.21200
C3588       C  0.31747929  0.81362476  0.20709585     0.26200
C3589       C  0.29763744  0.81429177  0.22668457    -0.21800
C3590       C  0.30515224  0.81441903  0.25392782     0.21100
F3591       F  0.28615303  0.81432110  0.27315820    -0.11800
F3592       F  0.33892160  0.81795757  0.28776417    -0.14100
F3593       F  0.31052662  0.81181359  0.18077002    -0.14100
F3594       F  0.36349488  0.81527905  0.19522537    -0.11800
C3595       C  0.38181994  0.73825212  0.27924313     0.26300
C3596       C  0.38219553  0.73669775  0.30740394    -0.21800
C3597       C  0.38571533  0.75991432  0.32218683     0.21200
C3598       C  0.38908864  0.78474528  0.30873022     0.26200
C3599       C  0.38967973  0.78615191  0.28059742    -0.21800
C3600       C  0.38560729  0.76299515  0.26584288     0.21100
F3601       F  0.38655803  0.76432741  0.23860484    -0.11800
F3602       F  0.37813820  0.71573390  0.26486947    -0.14100
F3603       F  0.39168729  0.80748102  0.32291804    -0.14100
F3604       F  0.38475251  0.75862058  0.34942996    -0.11800
C3605       C  0.35252950  0.87981544  0.23237709     0.26300
C3606       C  0.37766098  0.87018591  0.22449933    -0.21800
C3607       C  0.38869599  0.88061924  0.20038669     0.21200
C3608       C  0.37462047  0.90000434  0.18434371     0.26200
C3609       C  0.34933788  0.90896889  0.19214880    -0.21800
C3610       C  0.33845856  0.89871230  0.21621564     0.21100
F3611       F  0.31451595  0.90794308  0.22451685    -0.11800
F3612       F  0.34231919  0.87222044  0.25661721    -0.14100
F3613       F  0.38587876  0.91062763  0.16162821    -0.14100
F3614       F  0.41303262  0.87209986  0.19247006    -0.11800
C3615       C  0.45288693  0.83333842  0.31022104     0.26300
C3616       C  0.44186904  0.81674263  0.29032416    -0.21800
C3617       C  0.45120289  0.78983255  0.29056790     0.21200
C3618       C  0.46900417  0.77953100  0.31066754     0.26200
C3619       C  0.48275401  0.79668799  0.32834929    -0.21800
C3620       C  0.47353745  0.82381717  0.32813907     0.21100
F3621       F  0.48395854  0.84112319  0.34604154    -0.11800
F3622       F  0.44315853  0.85857052  0.31310048    -0.14100
F3623       F  0.46958620  0.75238473  0.31464925    -0.14100
F3624       F  0.44254891  0.77280342  0.27158603    -0.11800
C3625       C  0.43548301  0.92177813  0.26655003     0.26300
C3626       C  0.46323602  0.91926208  0.26947274    -0.21800
C3627       C  0.47582290  0.89478205  0.26397428     0.21200
C3628       C  0.46038567  0.87268361  0.25672288     0.26200
C3629       C  0.43236744  0.87429612  0.25740620    -0.21800
C3630       C  0.42004241  0.89904933  0.26245433     0.21100
F3631       F  0.39331842  0.90088135  0.26636689    -0.11800
F3632       F  0.42320384  0.94569685  0.27053857    -0.14100
F3633       F  0.47266963  0.84927280  0.25087518    -0.14100
F3634       F  0.50274157  0.89181390  0.26715738    -0.11800
C3635       C  0.49005321  0.31851085  0.33227188     0.26300
C3636       C  0.49828069  0.32130189  0.30550252    -0.21800
C3637       C  0.50484017  0.29799736  0.29192826     0.21200
C3638       C  0.50424873  0.27238769  0.30525162     0.26200
C3639       C  0.49777749  0.26964524  0.33277088    -0.21800
C3640       C  0.49032711  0.29314468  0.34595893     0.21100
F3641       F  0.48433899  0.29190011  0.37243844    -0.11800
F3642       F  0.48229940  0.34059543  0.34536863    -0.14100
F3643       F  0.50956181  0.25025117  0.29106919    -0.14100
F3644       F  0.51155745  0.30009899  0.26563520    -0.11800
C3645       C  0.43742806  0.18837921  0.46229365     0.26300
C3646       C  0.43841033  0.21515727  0.47088924    -0.21800
C3647       C  0.45510293  0.23350287  0.45660049     0.21200
C3648       C  0.46994206  0.22570081  0.43437262     0.26200
C3649       C  0.46823273  0.19916884  0.42452067    -0.21800
C3650       C  0.45235241  0.18038124  0.43986558     0.21100
F3651       F  0.45194240  0.15385900  0.43408176    -0.11800
F3652       F  0.42145765  0.16996699  0.47525503    -0.14100
F3653       F  0.48749406  0.24402652  0.42366585    -0.14100
F3654       F  0.45701927  0.25948965  0.46422173    -0.11800
C3655       C  0.59119604  0.19730087  0.47218634     0.26300
C3656       C  0.56746139  0.20880440  0.46141533    -0.21800
C3657       C  0.55629010  0.23067970  0.47497692     0.21200
C3658       C  0.56798813  0.24014079  0.49874283     0.26200
C3659       C  0.59188127  0.22894595  0.50923751    -0.21800
C3660       C  0.60337637  0.20743302  0.49558286     0.21100
F3661       F  0.62691746  0.19660863  0.50466781    -0.11800
F3662       F  0.60240791  0.17602728  0.46029721    -0.14100
F3663       F  0.55695733  0.26166293  0.51043420    -0.14100
F3664       F  0.53431667  0.24366591  0.46466982    -0.11800
C3665       C  0.32787910  0.12924899  0.23093536     0.26300
C3666       C  0.32797855  0.10589673  0.24789847    -0.21800
C3667       C  0.30393767  0.09548465  0.25808298     0.21200
C3668       C  0.27996460  0.10864046  0.25200376     0.26200
C3669       C  0.27967445  0.13240254  0.23534357    -0.21800
C3670       C  0.30385876  0.14243683  0.22462533     0.21100
F3671       F  0.30427447  0.16471260  0.20780353    -0.11800
F3672       F  0.35106904  0.13911729  0.22039026    -0.14100
F3673       F  0.25718183  0.09849406  0.26320242    -0.14100
F3674       F  0.30389139  0.07337396  0.27515390    -0.11800
C3675       C  0.34291017  0.14094721  0.29821181     0.26300
C3676       C  0.36504744  0.13540484  0.28238556    -0.21800
C3677       C  0.37971279  0.15670072  0.27029249     0.21200
C3678       C  0.37172310  0.18338661  0.27324869     0.26200
C3679       C  0.34867966  0.18887209  0.28791182    -0.21800
C3680       C  0.33453538  0.16751905  0.30072210     0.21100
F3681       F  0.31297834  0.17245024  0.31607487    -0.11800
F3682       F  0.32887615  0.12038347  0.31028869    -0.14100
F3683       F  0.38581325  0.20381162  0.26098107    -0.14100
F3684       F  0.40071108  0.15147703  0.25435490    -0.11800
C3685       C  0.43363886  0.10925201  0.29452416     0.26300
C3686       C  0.40927043  0.09926666  0.30469872    -0.21800
C3687       C  0.40487821  0.10021764  0.33242852     0.21200
C3688       C  0.42436031  0.11131272  0.34960633     0.26200
C3689       C  0.44847641  0.12243849  0.33934229    -0.21800
C3690       C  0.45289220  0.12089820  0.31145531     0.21100
F3691       F  0.47508968  0.13202051  0.30004606    -0.11800
F3692       F  0.43836263  0.10875251  0.26779323    -0.14100
F3693       F  0.41957447  0.11117390  0.37634455    -0.14100
F3694       F  0.38140263  0.09096805  0.34282139    -0.11800
C3695       C  0.33990472  0.05922262  0.21159278     0.26300
C3696       C  0.34825614  0.04825378  0.23700955    -0.21800
C3697       C  0.33968163  0.02155847  0.24354637     0.21200
C3698       C  0.32452387  0.00640915  0.22469310     0.26200
C3699       C  0.31736687  0.01757120  0.19872790    -0.21800
C3700       C  0.32202898  0.04545112  0.19498117     0.21100
F3701       F  0.30652646  0.06043632  0.17754755    -0.11800
F3702       F  0.34849099  0.08400039  0.20270437    -0.14100
F3703       F  0.31520922  0.98161545  0.23272506    -0.14100
F3704       F  0.34511445  0.01038850  0.26832444    -0.11800
C3705       C  0.41094657  0.02184952  0.33120543     0.26300
C3706       C  0.43771943  0.02129714  0.32313412    -0.21800
C3707       C  0.44396217  0.02972890  0.29654745     0.21200
C3708       C  0.42403901  0.03939406  0.27878080     0.26200
C3709       C  0.39765074  0.04196771  0.28740300    -0.21800
C3710       C  0.39107225  0.03236934  0.31355035     0.21100
F3711       F  0.36599071  0.03603709  0.32292305    -0.11800
F3712       F  0.40435883  0.01359482  0.35658090    -0.14100
F3713       F  0.43112383  0.04944568  0.25412004    -0.14100
F3714       F  0.46964321  0.02967056  0.28798725    -0.11800
C3715       C  0.66605556  0.16428874  0.22752448     0.26300
C3716       C  0.65996658  0.14047960  0.24240529    -0.21800
C3717       C  0.68041208  0.12234593  0.25031210     0.21200
C3718       C  0.70672216  0.12795843  0.24346858     0.26200
C3719       C  0.71297915  0.15192655  0.22892545    -0.21800
C3720       C  0.69259341  0.17010670  0.22088580     0.21100
F3721       F  0.69837606  0.19321786  0.20645845    -0.11800
F3722       F  0.64636160  0.18182906  0.21966329    -0.14100
F3723       F  0.72631217  0.11071048  0.25236952    -0.14100
F3724       F  0.67515721  0.10010572  0.26626793    -0.11800
C3725       C  0.66896620  0.19268044  0.30966014     0.26300
C3726       C  0.65611793  0.21777572  0.30775320    -0.21800
C3727       C  0.63174503  0.22058541  0.29341419     0.21200
C3728       C  0.62043629  0.19845839  0.28087252     0.26200
C3729       C  0.63309960  0.17329380  0.28303354    -0.21800
C3730       C  0.65715977  0.17038348  0.29790835     0.21100
F3731       F  0.66869614  0.14576697  0.30175617    -0.11800
F3732       F  0.69238470  0.18960368  0.32368256    -0.14100
F3733       F  0.59723169  0.20148048  0.26652497    -0.14100
F3734       F  0.61932777  0.24493137  0.29101517    -0.11800
C3735       C  0.63298484  0.09883611  0.20119206     0.26300
C3736       C  0.62859363  0.09003209  0.22827520    -0.21800
C3737       C  0.63780857  0.06373778  0.23559945     0.21200
C3738       C  0.65156089  0.04756941  0.21705410     0.26200
C3739       C  0.65651937  0.05676936  0.18999268    -0.21800
C3740       C  0.64643384  0.08273023  0.18261108     0.21100
F3741       F  0.64929009  0.09273472  0.15706720    -0.11800
F3742       F  0.62445891  0.12374743  0.19258274    -0.14100
F3743       F  0.66119981  0.02335558  0.22638748    -0.14100
F3744       F  0.63506922  0.05411016  0.26128125    -0.11800
C3745       C  0.55720799  0.15728019  0.29839103     0.26300
C3746       C  0.58266628  0.14612554  0.30376563    -0.21800
C3747       C  0.59183094  0.14591511  0.33081534     0.21200
C3748       C  0.57573604  0.15573924  0.35177806     0.26200
C3749       C  0.54998425  0.16706999  0.34648307    -0.21800
C3750       C  0.54134043  0.16747119  0.31901375     0.21100
F3751       F  0.51673001  0.17712539  0.31185793    -0.11800
F3752       F  0.54758259  0.15864633  0.27274100    -0.14100
F3753       F  0.58519291  0.15290972  0.37733277    -0.14100
F3754       F  0.61640031  0.13571257  0.33716593    -0.11800
C3755       C  0.54751504  0.06577275  0.29916812     0.26300
C3756       C  0.56152860  0.05619312  0.32256884    -0.21800
C3757       C  0.58871385  0.06293312  0.32578350     0.21200
C3758       C  0.60164688  0.07867014  0.30610315     0.26200
C3759       C  0.58749256  0.08843748  0.28316373    -0.21800
C3760       C  0.56034175  0.08225756  0.27996227     0.21100
F3761       F  0.54615133  0.09272629  0.25855242    -0.11800
F3762       F  0.52171774  0.05834551  0.29426528    -0.14100
F3763       F  0.62772184  0.08577277  0.31008312    -0.14100
F3764       F  0.60283973  0.05387530  0.34780773    -0.11800
loop_ 
_geom_bond_atom_site_label_1 
_geom_bond_atom_site_label_2 
_geom_bond_distance 
_geom_bond_site_symmetry_2 
_ccdc_geom_bond_type 
N1            C5   1.345       .  A
N1            C2   1.359       .  A
N1         C3729   1.432       .  S
C2            C3   1.391       .  A
C2         C3716   1.465       .  S
C3            C4   1.426       .  A
C3         C3736   1.551       .  S
C4            C5   1.412       .  A
C4         C3759   1.453       .  S
C5         C3746   1.538       .  S
N6           C10   1.337       .  A
N6            C7   1.347       .  A
N6         C3676   1.431       .  S
C7            C8   1.400       .  A
C7         C3666   1.469       .  S
C8            C9   1.423       .  A
C8         C3696   1.529       .  S
C9           C10   1.400       .  A
C9         C3709   1.467       .  S
C10        C3686   1.498       .  S
C11          C13   1.541       .  S
C11          C15   1.534       .  S
C11          C14   1.554       .  S
C11        C3649   1.575       .  S
C12          C16   1.567       .  S
C12          C18   1.584       .  S
C12          C17   1.548       .  S
C12        C3749   1.591       .  S
C13          C21   1.389       .  A
C13          C16   1.410       .  A
C14          C25   1.386       .  A
C14          C17   1.398       .  A
C15          C29   1.367       .  A
C15          C18   1.407       .  A
C16          C19   1.388       .  A
C17          C23   1.383       .  A
C18          C26   1.420       .  A
C19          N20   1.360       .  A
C19          H32   1.080       .  S
N20          C21   1.361       .  A
N20        C3689   1.459       .  S
C21          H22   1.082       .  S
C23          N24   1.362       .  A
C23          H33   1.082       .  S
N24          C25   1.365       .  A
N24        C3639   1.456       .  S
C25          H31   1.081       .  S
C26          N27   1.378       .  A
C26          H28   1.081       .  S
N27          C29   1.344       .  A
N27        C3656   1.462       .  S
C29          H30   1.082       .  S
N34          C38   1.359       .  A
N34          C35   1.352       .  A
N34        C3599   1.418       .  S
C35          C36   1.375       .  A
C35        C3586   1.485       .  S
C36          C37   1.402       .  A
C36        C3606   1.495       .  S
C37          C38   1.408       .  A
C37        C3629   1.458       .  S
C38        C3616   1.538       .  S
N39          C43   1.344       .  A
N39          C40   1.350       .  A
N39        C3546   1.436       .  S
C40          C41   1.383       .  A
C40        C3536   1.456       .  S
C41          C42   1.391       .  A
C41        C3556   1.491       .  S
C42          C43   1.399       .  A
C42        C3576   1.464       .  S
C43        C3566   1.488       .  S
C44          C46   1.572   1_545  S
C44          C48   1.577       .  S
C44          C47   1.558       .  S
C44        C3516   1.561       .  S
C45          C49   1.562       .  S
C45          C51   1.559   1_565  S
C45          C50   1.529       .  S
C45        C3559   1.550       .  S
C46          C54   1.395       .  A
C46          C49   1.411       .  A
C47          C58   1.400       .  A
C47          C50   1.385   1_545  A
C48          C62   1.418       .  A
C48          C51   1.393       .  A
C49          C52   1.417       .  A
C50          C56   1.363       .  A
C51          C59   1.398       .  A
C52          N53   1.372       .  A
C52          H65   1.082       .  S
N53          C54   1.357       .  A
N53        C3526   1.482       .  S
C54          H55   1.079       .  S
C56          N57   1.351       .  A
C56          H66   1.082       .  S
N57          C58   1.369   1_565  A
N57        C3506   1.450       .  S
C58          H64   1.082       .  S
C59          N60   1.364       .  A
C59          H61   1.080   1_545  S
N60          C62   1.382       .  A
N60        C3739   1.494       .  S
C62          H63   1.081       .  S
C67          C69   1.557       .  S
C67          C71   1.557       .  S
C67          C70   1.565       .  S
C67        C3619   1.577       .  S
C68          C72   1.518       .  S
C68          C74   1.546       .  S
C68          C73   1.546       .  S
C68        C3496   1.563       .  S
C69          C77   1.398       .  A
C69          C72   1.387       .  A
C70          C81   1.390       .  A
C70          C73   1.406       .  A
C71          C85   1.388       .  A
C71          C74   1.421       .  A
C72          C75   1.362       .  A
C73          C79   1.384       .  A
C74          C82   1.384       .  A
C75          N76   1.353       .  A
C75          H88   1.080       .  S
N76          C77   1.375       .  A
N76        C3486   1.457       .  S
C77          H78   1.081       .  S
C79          N80   1.357       .  A
C79          H89   1.082       .  S
N80          C81   1.358       .  A
N80        C3476   1.445       .  S
C81          H87   1.078       .  S
C82          N83   1.350       .  A
C82          H84   1.082       .  S
N83          C85   1.356       .  A
N83        C3569   1.439       .  S
C85          H86   1.083       .  S
C90          C92   1.530       .  S
C90          C94   1.556       .  S
C90          C93   1.579       .  S
C90        C3466   1.586       .  S
C91          C95   1.557       .  S
C91          C97   1.543   1_545  S
C91          C96   1.559   1_545  S
C91        C3699   1.578       .  S
C92         C100   1.371   1_565  A
C92          C95   1.395   1_565  A
C93         C104   1.403       .  A
C93          C96   1.408       .  A
C94         C108   1.389       .  A
C94          C97   1.406       .  A
C95          C98   1.393       .  A
C96         C102   1.388       .  A
C97         C105   1.376       .  A
C98          N99   1.355       .  A
C98         H111   1.078       .  S
N99         C100   1.351       .  A
N99        C3456   1.435       .  S
C100        H101   1.083       .  S
C102        N103   1.371       .  A
C102        H112   1.079   1_565  S
N103        C104   1.380       .  A
N103       C3446   1.486       .  S
C104        H110   1.080       .  S
C105        N106   1.351       .  A
C105        H107   1.081       .  S
N106        C108   1.359       .  A
N106       C3609   1.434       .  S
C108        H109   1.082       .  S
N113        C117   1.342       .  A
N113        C114   1.356       .  A
N113       C3406   1.447       .  S
C114        C115   1.389       .  A
C114       C3396   1.441       .  S
C115        C116   1.407       .  A
C115       C3419   1.530       .  S
C116        C117   1.406       .  A
C116       C3436   1.453       .  S
C117       C3426   1.503       .  S
N118        C122   1.341       .  A
N118        C119   1.349       .  A
N118       C3356   1.425       .  S
C119        C120   1.380       .  A
C119       C3346   1.472       .  S
C120        C121   1.394       .  A
C120       C3379   1.486       .  S
C121        C122   1.391       .  A
C121       C3386   1.457       .  S
C122       C3366   1.488       .  S
C123        C125   1.553       .  S
C123        C127   1.548       .  S
C123        C126   1.571       .  S
C123       C3429   1.560       .  S
C124        C128   1.530       .  S
C124        C130   1.532       .  S
C124        C129   1.544       .  S
C124       C3326   1.545       .  S
C125        C133   1.399       .  A
C125        C128   1.393       .  A
C126        C137   1.396       .  A
C126        C129   1.405       .  A
C127        C141   1.380       .  A
C127        C130   1.409       .  A
C128        C131   1.373       .  A
C129        C135   1.380       .  A
C130        C138   1.385       .  A
C131        N132   1.345       .  A
C131        H144   1.081       .  S
N132        C133   1.363       .  A
N132       C3336   1.441       .  S
C133        H134   1.082       .  S
C135        N136   1.356       .  A
C135        H145   1.082       .  S
N136        C137   1.366       .  A
N136       C3319   1.449       .  S
C137        H143   1.081       .  S
C138        N139   1.353       .  A
C138        H140   1.082       .  S
N139        C141   1.348       .  A
N139       C3369   1.443       .  S
C141        H142   1.079       .  S
N146        C150   1.337       .  A
N146        C147   1.359       .  A
N146       C3276   1.456       .  S
C147        C148   1.412       .  A
C147       C3266   1.435       .  S
C148        C149   1.421       .  A
C148       C3286   1.565       .  S
C149        C150   1.409       .  A
C149       C3306   1.452       .  S
C150       C3296   1.512       .  S
N151        C155   1.343       .  A
N151        C152   1.348       .  A
N151       C3229   1.412       .  S
C152        C153   1.380       .  A
C152       C3216   1.490       .  S
C153        C154   1.391       .  A
C153       C3236   1.467       .  S
C154        C155   1.384       .  A
C154       C3256   1.458       .  S
C155       C3246   1.485       .  S
C156        C158   1.532       .  S
C156        C160   1.533       .  S
C156        C159   1.568       .  S
C156       C3416   1.595       .  S
C157        C161   1.530       .  S
C157        C163   1.548       .  S
C157        C162   1.576       .  S
C157       C3209   1.600   1_455  S
C158        C166   1.374       .  A
C158        C161   1.403       .  A
C159        C170   1.388       .  A
C159        C162   1.418       .  A
C160        C174   1.365       .  A
C160        C163   1.410       .  A
C161        C164   1.365       .  A
C162        C168   1.399       .  A
C163        C171   1.378   1_455  A
C164        N165   1.347       .  A
C164        H177   1.083       .  S
N165        C166   1.350       .  A
N165       C3196   1.412       .  S
C166        H167   1.083       .  S
C168        N169   1.370       .  A
C168        H178   1.081       .  S
N169        C170   1.366       .  A
N169       C3186   1.474       .  S
C170        H176   1.077       .  S
C171        N172   1.364       .  A
C171        H173   1.082       .  S
N172        C174   1.355   1_655  A
N172       C3239   1.437       .  S
C174        H175   1.082       .  S
C179        C181   1.549       .  S
C179        C183   1.575       .  S
C179        C182   1.592       .  S
C179       C3169   1.580       .  S
C180        C184   1.524       .  S
C180        C186   1.527       .  S
C180        C185   1.535       .  S
C180       C3249   1.545       .  S
C181        C189   1.381       .  A
C181        C184   1.401       .  A
C182        C193   1.411       .  A
C182        C185   1.401       .  A
C183        C197   1.409       .  A
C183        C186   1.396       .  A
C184        C187   1.380       .  A
C185        C191   1.373       .  A
C186        C194   1.370       .  A
C187        N188   1.347       .  A
C187        H200   1.083       .  S
N188        C189   1.350       .  A
N188       C3176   1.435       .  S
C189        H190   1.081       .  S
C191        N192   1.359       .  A
C191        H201   1.079       .  S
N192        C193   1.381       .  A
N192       C3159   1.476       .  S
C193        H199   1.081       .  S
C194        N195   1.350       .  A
C194        H196   1.082       .  S
N195        C197   1.376       .  A
N195       C3299   1.458       .  S
C197        H198   1.082       .  S
C202        C204   1.527       .  S
C202        C206   1.532   1_655  S
C202        C205   1.560       .  S
C202       C3289   1.611       .  S
C203        C207   1.539   1_455  S
C203        C209   1.565       .  S
C203        C208   1.567       .  S
C203       C3136   1.628       .  S
C204        C212   1.371       .  A
C204        C207   1.403       .  A
C205        C216   1.384       .  A
C205        C208   1.431   1_655  A
C206        C220   1.357       .  A
C206        C209   1.417       .  A
C207        C210   1.362       .  A
C208        C214   1.392       .  A
C209        C217   1.387       .  A
C210        N211   1.364       .  A
C210        H223   1.081       .  S
N211        C212   1.360       .  A
N211       C3149   1.441       .  S
C212        H213   1.079       .  S
C214        N215   1.359       .  A
C214        H224   1.082       .  S
N215        C216   1.354   1_455  A
N215       C3126   1.451       .  S
C216        H222   1.079       .  S
C217        N218   1.369       .  A
C217        H219   1.081       .  S
N218        C220   1.352       .  A
N218       C3376   1.443       .  S
C220        H221   1.079       .  S
N225        C229   1.350       .  A
N225        C226   1.363       .  A
N225       C3086   1.421       .  S
C226        C227   1.387       .  A
C226       C3076   1.486       .  S
C227        C228   1.403       .  A
C227       C3096   1.510       .  S
C228        C229   1.393       .  A
C228       C3119   1.447       .  S
C229       C3106   1.529       .  S
N230        C234   1.356       .  A
N230        C231   1.340       .  A
N230       C3036   1.432       .  S
C231        C232   1.384       .  A
C231       C3049   1.490       .  S
C232        C233   1.393       .  A
C232       C3066   1.453       .  S
C233        C234   1.394       .  A
C233       C3059   1.493       .  S
C234       C3029   1.469       .  S
C235        C237   1.565       .  S
C235        C239   1.566       .  S
C235        C238   1.545       .  S
C235       C3109   1.582       .  S
C236        C240   1.533       .  S
C236        C242   1.543       .  S
C236        C241   1.553       .  S
C236       C3006   1.568       .  S
C237        C245   1.404       .  A
C237        C240   1.401       .  A
C238        C249   1.379       .  A
C238        C241   1.395       .  A
C239        C253   1.384       .  A
C239        C242   1.417       .  A
C240        C243   1.369       .  A
C241        C247   1.387       .  A
C242        C250   1.389       .  A
C243        N244   1.342       .  A
C243        H256   1.081       .  S
N244        C245   1.367       .  A
N244       C3019   1.446       .  S
C245        H246   1.080       .  S
C247        N248   1.369       .  A
C247        H257   1.081       .  S
N248        C249   1.364       .  A
N248       C2996   1.462       .  S
C249        H255   1.080       .  S
C250        N251   1.359       .  A
C250        H252   1.082       .  S
N251        C253   1.356       .  A
N251       C3046   1.451       .  S
C253        H254   1.080       .  S
N258        C262   1.343       .  A
N258        C259   1.354       .  A
N258       C2956   1.430       .  S
C259        C260   1.393       .  A
C259       C2949   1.478       .  S
C260        C261   1.409       .  A
C260       C2966   1.514       .  S
C261        C262   1.394       .  A
C261       C2986   1.457       .  S
C262       C2976   1.501       .  S
N263        C267   1.336       .  A
N263        C264   1.346       .  A
N263       C2906   1.435       .  S
C264        C265   1.376       .  A
C264       C2896   1.436       .  S
C265        C266   1.394       .  A
C265       C2916   1.492       .  S
C266        C267   1.386       .  A
C266       C2936   1.448       .  S
C267       C2929   1.477       .  S
C268        C270   1.539   1_556  S
C268        C272   1.544       .  S
C268        C271   1.556   1_556  S
C268       C2919   1.553       .  S
C269        C273   1.569       .  S
C269        C275   1.545       .  S
C269        C274   1.589       .  S
C269       C2879   1.577       .  S
C270        C278   1.378       .  A
C270        C273   1.392       .  A
C271        C282   1.391   1_554  A
C271        C274   1.406       .  A
C272        C286   1.399       .  A
C272        C275   1.393   1_556  A
C273        C276   1.407       .  A
C274        C280   1.406       .  A
C275        C283   1.377   1_554  A
C276        N277   1.377       .  A
C276        H289   1.082       .  S
N277        C278   1.357       .  A
N277       C3099   1.469       .  S
C278        H279   1.081       .  S
C280        N281   1.376       .  A
C280        H290   1.081       .  S
N281        C282   1.367   1_554  A
N281       C2866   1.481       .  S
C282        H288   1.081       .  S
C283        N284   1.348       .  A
C283        H285   1.079   1_556  S
N284        C286   1.364       .  A
N284       C2886   1.452       .  S
C286        H287   1.082       .  S
C291        C293   1.554       .  S
C291        C295   1.545       .  S
C291        C294   1.539       .  S
C291       C2979   1.559       .  S
C292        C296   1.536       .  S
C292        C298   1.536       .  S
C292        C297   1.557       .  S
C292       C2856   1.557       .  S
C293        C301   1.396       .  A
C293        C296   1.413       .  A
C294        C305   1.377       .  A
C294        C297   1.398       .  A
C295        C309   1.377       .  A
C295        C298   1.395       .  A
C296        C299   1.368       .  A
C297        C303   1.389       .  A
C298        C306   1.380       .  A
C299        N300   1.339       .  A
C299        H312   1.082       .  S
N300        C301   1.356       .  A
N300       C2846   1.428       .  S
C301        H302   1.081       .  S
C303        N304   1.364       .  A
C303        H313   1.082       .  S
N304        C305   1.358       .  A
N304       C2836   1.447       .  S
C305        H311   1.082       .  S
C306        N307   1.360       .  A
C306        H308   1.082       .  S
N307        C309   1.357       .  A
N307       C2926   1.441       .  S
C309        H310   1.082       .  S
C314        C316   1.548   1_556  S
C314        C318   1.555       .  S
C314        C317   1.554       .  S
C314       C2826   1.552       .  S
C315        C319   1.551       .  S
C315        C321   1.552   1_554  S
C315        C320   1.541       .  S
C315       C3056   1.551       .  S
C316        C324   1.387       .  A
C316        C319   1.400       .  A
C317        C328   1.389       .  A
C317        C320   1.396   1_556  A
C318        C332   1.397       .  A
C318        C321   1.401       .  A
C319        C322   1.398       .  A
C320        C326   1.375       .  A
C321        C329   1.389       .  A
C322        N323   1.362       .  A
C322        H335   1.082       .  S
N323        C324   1.355       .  A
N323       C2816   1.460       .  S
C324        H325   1.081       .  S
C326        N327   1.357       .  A
C326        H336   1.081       .  S
N327        C328   1.364   1_554  A
N327       C2806   1.449       .  S
C328        H334   1.082       .  S
C329        N330   1.361       .  A
C329        H331   1.080       .  S
N330        C332   1.368       .  A
N330       C2969   1.469       .  S
C332        H333   1.082       .  S
N337        C341   1.344       .  A
N337        C338   1.352       .  A
N337       C2756   1.425       .  S
C338        C339   1.383       .  A
C338       C2766   1.473       .  S
C339        C340   1.400       .  A
C339       C2776   1.499       .  S
C340        C341   1.394       .  A
C340       C2796   1.453       .  S
C341       C2786   1.505       .  S
N342        C346   1.341       .  A
N342        C343   1.344       .  A
N342       C2716   1.418       .  S
C343        C344   1.377       .  A
C343       C2706   1.469       .  S
C344        C345   1.388       .  A
C344       C2729   1.470       .  S
C345        C346   1.386       .  A
C345       C2746   1.456       .  S
C346       C2736   1.485       .  S
N347        C351   1.359       .  A
N347        C348   1.372       .  A
N347       C2656   1.434       .  S
C348        C349   1.399       .  A
C348       C2666   1.500       .  S
C349        C350   1.423       .  A
C349       C2686   1.553       .  S
C350        C351   1.426       .  A
C350       C2696   1.460       .  S
C351       C2676   1.564       .  S
N352        C356   1.342       .  A
N352        C353   1.344       .  A
N352       C2606   1.423       .  S
C353        C354   1.375       .  A
C353       C2616   1.465       .  S
C354        C355   1.393       .  A
C354       C2636   1.484       .  S
C355        C356   1.390       .  A
C355       C2646   1.450       .  S
C356       C2626   1.482       .  S
C357        C359   1.565       .  S
C357        C361   1.559       .  S
C357        C360   1.556       .  S
C357       C2679   1.617       .  S
C358        C362   1.530       .  S
C358        C364   1.546       .  S
C358        C363   1.551       .  S
C358       C2586   1.603       .  S
C359        C367   1.398       .  A
C359        C362   1.413       .  A
C360        C371   1.380       .  A
C360        C363   1.406       .  A
C361        C375   1.385       .  A
C361        C364   1.429       .  A
C362        C365   1.365       .  A
C363        C369   1.380       .  A
C364        C372   1.382       .  A
C365        N366   1.345       .  A
C365        H378   1.083       .  S
N366        C367   1.366       .  A
N366       C2596   1.438       .  S
C367        H368   1.082       .  S
C369        N370   1.366       .  A
C369        H379   1.079       .  S
N370        C371   1.366       .  A
N370       C2576   1.461       .  S
C371        H377   1.079       .  S
C372        N373   1.352       .  A
C372        H374   1.082       .  S
N373        C375   1.355       .  A
N373       C2629   1.438       .  S
C375        H376   1.082       .  S
C380        C382   1.531       .  S
C380        C384   1.554       .  S
C380        C383   1.547       .  S
C380       C2566   1.525       .  S
C381        C385   1.540   1_554  S
C381        C387   1.555       .  S
C381        C386   1.546       .  S
C381       C2639   1.523   1_554  S
C382        C390   1.378       .  A
C382        C385   1.373   1_554  A
C383        C394   1.388       .  A
C383        C386   1.394       .  A
C384        C398   1.394       .  A
C384        C387   1.404       .  A
C385        C388   1.392       .  A
C386        C392   1.378       .  A
C387        C395   1.390       .  A
C388        N389   1.370       .  A
C388        H401   1.081       .  S
N389        C390   1.360   1_556  A
N389       C2559   1.462       .  S
C390        H391   1.080       .  S
C392        N393   1.351       .  A
C392        H402   1.079       .  S
N393        C394   1.360       .  A
N393       C2546   1.440       .  S
C394        H400   1.082       .  S
C395        N396   1.363       .  A
C395        H397   1.079       .  S
N396        C398   1.364       .  A
N396       C2789   1.470       .  S
C398        H399   1.081       .  S
C403        C405   1.538       .  S
C403        C407   1.539   1_556  S
C403        C406   1.568       .  S
C403       C2689   1.614       .  S
C404        C408   1.542   1_554  S
C404        C410   1.549       .  S
C404        C409   1.566   1_554  S
C404       C2536   1.615       .  S
C405        C413   1.381       .  A
C405        C408   1.416       .  A
C406        C417   1.389       .  A
C406        C409   1.420       .  A
C407        C421   1.362       .  A
C407        C410   1.421       .  A
C408        C411   1.369       .  A
C409        C415   1.396       .  A
C410        C418   1.388       .  A
C411        N412   1.346       .  A
C411        H424   1.084       .  S
N412        C413   1.352       .  A
N412       C2526   1.419       .  S
C413        H414   1.083       .  S
C415        N416   1.366       .  A
C415        H425   1.081   1_556  S
N416        C417   1.363       .  A
N416       C2516   1.471       .  S
C417        H423   1.078       .  S
C418        N419   1.363       .  A
C418        H420   1.082       .  S
N419        C421   1.350       .  A
N419       C2739   1.441       .  S
C421        H422   1.081       .  S
C426        C428   1.554       .  S
C426        C430   1.536       .  S
C426        C429   1.552       .  S
C426       C2779   1.555       .  S
C427        C431   1.527       .  S
C427        C433   1.533       .  S
C427        C432   1.561       .  S
C427       C2496   1.555       .  S
C428        C436   1.395       .  A
C428        C431   1.405       .  A
C429        C440   1.385       .  A
C429        C432   1.402       .  A
C430        C444   1.374       .  A
C430        C433   1.391       .  A
C431        C434   1.365       .  A
C432        C438   1.387       .  A
C433        C441   1.376       .  A
C434        N435   1.339       .  A
C434        H447   1.083       .  S
N435        C436   1.359       .  A
N435       C2506   1.425       .  S
C436        H437   1.082       .  S
C438        N439   1.367       .  A
C438        H448   1.081       .  S
N439        C440   1.366       .  A
N439       C2486   1.463       .  S
C440        H446   1.081       .  S
C441        N442   1.359       .  A
C441        H443   1.082       .  S
N442        C444   1.352       .  A
N442       C2726   1.434       .  S
C444        H445   1.082       .  S
N449        C453   1.342       .  A
N449        C450   1.354       .  A
N449       C2449   1.438       .  S
C450        C451   1.398       .  A
C450       C2436   1.454       .  S
C451        C452   1.443       .  A
C451       C2466   1.579       .  S
C452        C453   1.440       .  A
C452       C2476   1.472       .  S
C453       C2456   1.548       .  S
N454        C458   1.342       .  A
N454        C455   1.344       .  A
N454       C2386   1.427       .  S
C455        C456   1.372       .  A
C455       C2396   1.452       .  S
C456        C457   1.386       .  A
C456       C2416   1.480       .  S
C457        C458   1.390       .  A
C457       C2429   1.457       .  S
C458       C2406   1.478       .  S
N459        C463   1.344       .  A
N459        C460   1.344       .  A
N459       C2346   1.439       .  S
C460        C461   1.380       .  A
C460       C2336   1.451       .  S
C461        C462   1.398       .  A
C461       C2356   1.495       .  S
C462        C463   1.409       .  A
C462       C2376   1.478       .  S
C463       C2366   1.483       .  S
N464        C468   1.343       .  A
N464        C465   1.339       .  A
N464       C2286   1.431       .  S
C465        C466   1.365       .  A
C465       C2299   1.447       .  S
C466        C467   1.390       .  A
C466       C2316   1.483       .  S
C467        C468   1.401       .  A
C467       C2326   1.462       .  S
C468       C2309   1.473       .  S
C469        C471   1.549       .  S
C469        C473   1.542       .  S
C469        C472   1.549       .  S
C469       C2359   1.551       .  S
C470        C474   1.534       .  S
C470        C476   1.544       .  S
C470        C475   1.553       .  S
C470       C2266   1.550       .  S
C471        C479   1.394       .  A
C471        C474   1.401       .  A
C472        C483   1.382       .  A
C472        C475   1.397       .  A
C473        C487   1.377       .  A
C473        C476   1.404       .  A
C474        C477   1.373       .  A
C475        C481   1.386       .  A
C476        C484   1.391       .  A
C477        N478   1.345       .  A
C477        H490   1.082       .  S
N478        C479   1.359       .  A
N478       C2276   1.433       .  S
C479        H480   1.082       .  S
C481        N482   1.365       .  A
C481        H491   1.081       .  S
N482        C483   1.363       .  A
N482       C2256   1.456       .  S
C483        H489   1.081       .  S
C484        N485   1.359       .  A
C484        H486   1.082       .  S
N485        C487   1.347       .  A
N485       C2306   1.439       .  S
C487        H488   1.081       .  S
C492        C494   1.539       .  S
C492        C496   1.557       .  S
C492        C495   1.554       .  S
C492       C2469   1.617       .  S
C493        C497   1.531   1_565  S
C493        C499   1.544       .  S
C493        C498   1.575   1_565  S
C493       C2239   1.616       .  S
C494        C502   1.388       .  A
C494        C497   1.407       .  A
C495        C506   1.386       .  A
C495        C498   1.434       .  A
C496        C510   1.378   1_545  A
C496        C499   1.430   1_545  A
C497        C500   1.365       .  A
C498        C504   1.397       .  A
C499        C507   1.388       .  A
C500        N501   1.349       .  A
C500        H513   1.082       .  S
N501        C502   1.356       .  A
N501       C2249   1.436       .  S
C502        H503   1.081       .  S
C504        N505   1.363       .  A
C504        H514   1.082   1_545  S
N505        C506   1.358       .  A
N505       C2226   1.463       .  S
C506        H512   1.081       .  S
C507        N508   1.355       .  A
C507        H509   1.082       .  S
N508        C510   1.347       .  A
N508       C2319   1.441       .  S
C510        H511   1.079       .  S
C515        C517   1.529   1_545  S
C515        C519   1.530       .  S
C515        C518   1.554       .  S
C515       C2419   1.533       .  S
C516        C520   1.547       .  S
C516        C522   1.541       .  S
C516        C521   1.574       .  S
C516       C2206   1.545       .  S
C517        C525   1.367       .  A
C517        C520   1.380       .  A
C518        C529   1.383       .  A
C518        C521   1.402   1_545  A
C519        C533   1.385       .  A
C519        C522   1.387   1_545  A
C520        C523   1.392       .  A
C521        C527   1.399       .  A
C522        C530   1.373       .  A
C523        N524   1.372       .  A
C523        H536   1.080       .  S
N524        C525   1.355       .  A
N524       C2369   1.457       .  S
C525        H526   1.078       .  S
C527        N528   1.373       .  A
C527        H537   1.081       .  S
N528        C529   1.365   1_565  A
N528       C2196   1.472       .  S
C529        H535   1.080       .  S
C530        N531   1.352   1_565  A
C530        H532   1.080       .  S
N531        C533   1.360       .  A
N531       C2216   1.441       .  S
C533        H534   1.082       .  S
C538        C540   1.586       .  S
C538        C542   1.538       .  S
C538        C541   1.591       .  S
C538       C2459   1.605       .  S
C539        C543   1.515       .  S
C539        C545   1.530       .  S
C539        C544   1.555       .  S
C539       C2176   1.579       .  S
C540        C548   1.411       .  A
C540        C543   1.401       .  A
C541        C552   1.406       .  A
C541        C544   1.414       .  A
C542        C556   1.374       .  A
C542        C545   1.399       .  A
C543        C546   1.355       .  A
C544        C550   1.384       .  A
C545        C553   1.373       .  A
C546        N547   1.346       .  A
C546        H559   1.080       .  S
N547        C548   1.380       .  A
N547       C2186   1.459       .  S
C548        H549   1.079       .  S
C550        N551   1.363       .  A
C550        H560   1.080       .  S
N551        C552   1.376       .  A
N551       C2169   1.476       .  S
C552        H558   1.081       .  S
C553        N554   1.353       .  A
C553        H555   1.083       .  S
N554        C556   1.354       .  A
N554       C2409   1.423       .  S
C556        H557   1.083       .  S
Zn561       O565   1.955       .  S
Zn561       O566   2.076       .  S
Zn561       O570   2.048       .  S
Zn561       O577   2.010       .  S
Zn562       O565   1.929       .  S
Zn562       O567   1.955       .  S
Zn562       O569   1.990       .  S
Zn562       O573   1.960       .  S
Zn563       O565   1.940       .  S
Zn563       O568   1.981       .  S
Zn563       O571   1.998       .  S
Zn563       O574   2.021       .  S
Zn564       O565   1.960       .  S
Zn564       O572   2.039       .  S
Zn564       O575   2.020       .  S
Zn564       O576   2.013       .  S
O566        C578   1.280       .  A
O567        C579   1.265       .  A
O568        C580   1.271       .  A
O569        C578   1.268       .  A
O570        C580   1.278       .  A
O571        C579   1.269       .  A
O572        C581   1.276       .  A
O573        C582   1.266       .  A
O574        C581   1.272       .  A
O575        C582   1.273       .  A
O576        C583   1.274       .  A
O577        C583   1.275       .  A
C578       C2669   1.482       .  S
C579       C2156   1.444       .  S
C580       C2126   1.468       .  S
C581       C2146   1.480       .  S
C582       C2136   1.453       .  S
C583       C2349   1.474       .  S
Zn584       O588   1.967       .  S
Zn584       O589   2.090       .  S
Zn584       O593   1.991       .  S
Zn584       O600   2.043       .  S
Zn585       O588   1.910       .  S
Zn585       O590   1.963       .  S
Zn585       O592   2.006       .  S
Zn585       O596   1.976       .  S
Zn586       O588   1.953       .  S
Zn586       O591   1.970       .  S
Zn586       O594   2.008       .  S
Zn586       O597   2.075       .  S
Zn587       O588   1.896       .  S
Zn587       O595   1.973       .  S
Zn587       O598   1.920       .  S
Zn587       O599   1.915       .  S
O589        C601   1.280       .  A
O590        C602   1.269       .  A
O591        C603   1.272       .  A
O592        C601   1.270       .  A
O593        C603   1.275       .  A
O594        C602   1.273       .  A
O595        C604   1.264       .  A
O596        C605   1.271       .  A
O597        C604   1.277       .  A
O598        C605   1.263       .  A
O599        C606   1.262       .  A
O600        C606   1.276       .  A
C601       C2116   1.501       .  S
C602       C2619   1.475       .  S
C603       C2106   1.464       .  S
C604       C3219   1.492       .  S
C605       C2399   1.443       .  S
C606       C2096   1.472       .  S
N607        C611   1.354       .  A
N607        C608   1.348   1_545  A
N607       C2199   1.462       .  S
C608        C609   1.411       .  A
C608       C2149   1.485       .  S
C609        C610   1.444   1_565  A
C609       C2086   1.513       .  S
C610        C611   1.408       .  A
C610       C3206   1.546       .  S
C611       C2099   1.463       .  S
N612        C616   1.351       .  A
N612        C613   1.354       .  A
N612       C3189   1.465       .  S
C613        C614   1.401       .  A
C613       C2109   1.457   1_455  S
C614        C615   1.394       .  A
C614       C2556   1.493       .  S
C615        C616   1.392       .  A
C615       C2829   1.496       .  S
C616       C2079   1.449       .  S
Zn617       O621   1.939       .  S
Zn617       O622   1.971       .  S
Zn617       O626   2.005       .  S
Zn617       O633   2.032       .  S
Zn618       O621   1.911       .  S
Zn618       O623   1.957       .  S
Zn618       O625   1.928       .  S
Zn618       O629   1.944       .  S
Zn619       O621   1.918       .  S
Zn619       O624   1.931       .  S
Zn619       O627   1.981       .  S
Zn619       O630   1.979       .  S
Zn620       O621   1.906       .  S
Zn620       O628   1.943       .  S
Zn620       O631   1.970       .  S
Zn620       O632   1.964       .  S
O622        C634   1.270       .  A
O623        C635   1.261       .  A
O624        C636   1.264       .  A
O625        C634   1.263       .  A
O626        C636   1.272       .  A
O627        C635   1.265       .  A
O628        C637   1.266       .  A
O629        C638   1.265       .  A
O630        C637   1.270       .  A
O631        C638   1.267       .  A
O632        C639   1.266       .  A
O633        C639   1.273       .  A
C634       C3399   1.430       .  S
C635       C2059   1.444       .  S
C636       C2439   1.442       .  S
C637       C2066   1.438       .  S
C638       C2076   1.438       .  S
C639       C2946   1.470       .  S
N640        C644   1.342       .  A
N640        C641   1.354   1_545  A
N640       C2229   1.459       .  S
C641        C642   1.395       .  A
C641       C2046   1.425       .  S
C642        C643   1.380   1_565  A
C642       C2036   1.513       .  S
C643        C644   1.388       .  A
C643       C3199   1.452       .  S
C644       C2056   1.461       .  S
Zn645       O649   1.869       .  S
Zn645       O650   1.918       .  S
Zn645       O654   1.943       .  S
Zn645       O661   2.025       .  S
Zn646       O649   1.876       .  S
Zn646       O651   1.974       .  S
Zn646       O653   1.962       .  S
Zn646       O657   1.923       .  S
Zn647       O649   1.879       .  S
Zn647       O652   1.948       .  S
Zn647       O655   2.019       .  S
Zn647       O658   1.987       .  S
Zn648       O649   1.849       .  S
Zn648       O656   1.930       .  S
Zn648       O659   1.922       .  S
Zn648       O660   1.970       .  S
O650        C662   1.265       .  A
O651        C663   1.268       .  A
O652        C664   1.271       .  A
O653        C662   1.267       .  A
O654        C664   1.270       .  A
O655        C663   1.273       .  A
O656        C665   1.263       .  A
O657        C666   1.268       .  A
O658        C665   1.273       .  A
O659        C666   1.266       .  A
O660        C667   1.264       .  A
O661        C667   1.273       .  A
C662       C2016   1.441       .  S
C663       C2029   1.481       .  S
C664       C2899   1.452       .  S
C665       C2296   1.447       .  S
C666       C2049   1.439       .  S
C667       C2006   1.469       .  S
N668        C672   1.339       .  A
N668        C669   1.343       .  A
N668       C1999   1.444       .  S
C669        C670   1.380       .  A
C669       C2019   1.432       .  S
C670        C671   1.384       .  A
C670       C2889   1.484       .  S
C671        C672   1.387       .  A
C671       C2529   1.458   1_455  S
C672       C2159   1.458   1_455  S
N673        C677   1.352       .  A
N673        C674   1.364   1_554  A
N673       C2869   1.477       .  S
C674        C675   1.416       .  A
C674       C2026   1.463       .  S
C675        C676   1.452   1_556  A
C675       C2236   1.563       .  S
C676        C677   1.416       .  A
C676       C3469   1.523       .  S
C677       C1989   1.491       .  S
Zn678       O682   1.951       .  S
Zn678       O683   2.029       .  S
Zn678       O687   2.062       .  S
Zn678       O694   2.075       .  S
Zn679       O682   1.956       .  S
Zn679       O684   2.080       .  S
Zn679       O686   2.052       .  S
Zn679       O690   2.027       .  S
Zn680       O682   1.915       .  S
Zn680       O685   1.972       .  S
Zn680       O688   1.976       .  S
Zn680       O691   1.945       .  S
Zn681       O682   1.949       .  S
Zn681       O689   2.046       .  S
Zn681       O692   2.029       .  S
Zn681       O693   2.035       .  S
O683        C695   1.277       .  A
O684        C696   1.280       .  A
O685        C697   1.267       .  A
O686        C695   1.280       .  A
O687        C697   1.280       .  A
O688        C696   1.266       .  A
O689        C698   1.276       .  A
O690        C699   1.276       .  A
O691        C698   1.264       .  A
O692        C699   1.277       .  A
O693        C700   1.276       .  A
O694        C700   1.281       .  A
C695       C1986   1.481       .  S
C696       C3079   1.480       .  S
C697       C3589   1.467       .  S
C698       C1956   1.456       .  S
C699       C1969   1.470       .  S
C700       C1976   1.491       .  S
N701        C705   1.343       .  A
N701        C702   1.355   1_455  A
N701       C1939   1.464       .  S
C702        C703   1.407   1_655  A
C702       C1946   1.450       .  S
C703        C704   1.455       .  A
C703       C2539   1.560   1_455  S
C704        C705   1.407       .  A
C704       C2876   1.516       .  S
C705       C1966   1.482       .  S
Zn706       O710   1.871       .  S
Zn706       O711   1.976       .  S
Zn706       O715   2.005       .  S
Zn706       O722   1.898       .  S
Zn707       O710   1.861       .  S
Zn707       O712   1.977       .  S
Zn707       O714   2.005       .  S
Zn707       O718   1.976       .  S
Zn708       O710   1.848       .  S
Zn708       O713   1.943       .  S
Zn708       O716   1.933       .  S
Zn708       O719   1.925       .  S
Zn709       O710   1.901       .  S
Zn709       O717   2.010       .  S
Zn709       O720   1.984       .  S
Zn709       O721   2.004       .  S
O711        C723   1.270       .  A
O712        C724   1.275       .  A
O713        C725   1.264       .  A
O714        C723   1.272       .  A
O715        C725   1.273       .  A
O716        C724   1.265       .  A
O717        C726   1.273       .  A
O718        C727   1.273       .  A
O719        C726   1.264       .  A
O720        C727   1.275       .  A
O721        C728   1.274       .  A
O722        C728   1.263       .  A
C723       C1909   1.473       .  S
C724       C2719   1.451       .  S
C725       C3539   1.459       .  S
C726       C1916   1.466       .  S
C727       C1949   1.456       .  S
C728       C1926   1.459       .  S
N729        C733   1.342       .  A
N729        C730   1.355   1_556  A
N729       C2519   1.461       .  S
C730        C731   1.405   1_554  A
C730       C1919   1.444       .  S
C731        C732   1.412       .  A
C731       C3529   1.527   1_556  S
C732        C733   1.394       .  A
C732       C2209   1.485       .  S
C733       C2139   1.466       .  S
Zn734       O738   1.886       .  S
Zn734       O739   1.980       .  S
Zn734       O743   1.941       .  S
Zn734       O750   2.018       .  S
Zn735       O738   1.896       .  S
Zn735       O740   1.985       .  S
Zn735       O742   1.996       .  S
Zn735       O746   1.998       .  S
Zn736       O738   1.913       .  S
Zn736       O741   1.995       .  S
Zn736       O744   1.984       .  S
Zn736       O747   2.003       .  S
Zn737       O738   1.863       .  S
Zn737       O745   1.932       .  S
Zn737       O748   1.936       .  S
Zn737       O749   1.954       .  S
O739        C751   1.272       .  A
O740        C752   1.273       .  A
O741        C753   1.273       .  A
O742        C751   1.271       .  A
O743        C753   1.266       .  A
O744        C752   1.272       .  A
O745        C754   1.264       .  A
O746        C755   1.275       .  A
O747        C754   1.271       .  A
O748        C755   1.265       .  A
O749        C756   1.267       .  A
O750        C756   1.275       .  A
C751       C3026   1.467       .  S
C752       C1899   1.465       .  S
C753       C1876   1.464       .  S
C754       C1889   1.461       .  S
C755       C3349   1.462       .  S
C756       C3669   1.471       .  S
N757        C761   1.346   1_455  A
N757        C758   1.351       .  A
N757       C3129   1.445       .  S
C758        C759   1.390       .  A
C758       C1896   1.452       .  S
C759        C760   1.392   1_455  A
C759       C2819   1.494       .  S
C760        C761   1.387       .  A
C760       C2569   1.465       .  S
C761       C1869   1.471       .  S
N762        C766   1.345       .  A
N762        C763   1.364   1_565  A
N762       C3449   1.473       .  S
C763        C764   1.414   1_545  A
C763       C1886   1.450       .  S
C764        C765   1.449       .  A
C764       C3139   1.574   1_565  S
C765        C766   1.416       .  A
C765       C1856   1.504       .  S
C766       C1979   1.498       .  S
N767        C771   1.346       .  A
N767        C768   1.348       .  A
N767       C2809   1.445       .  S
C768        C769   1.388       .  A
C768       C1879   1.457       .  S
C769        C770   1.377       .  A
C769       C3459   1.478       .  S
C770        C771   1.385       .  A
C770       C2246   1.466   1_554  S
C771       C2069   1.450   1_554  S
N772        C776   1.347       .  A
N772        C773   1.335       .  A
N772       C3509   1.440       .  S
C773        C774   1.378       .  A
C773       C1929   1.451       .  S
C774        C775   1.400       .  A
C774       C1836   1.476       .  S
C775        C776   1.413       .  A
C775       C3146   1.504       .  S
C776       C1846   1.464   1_565  S
Zn777       O781   1.924       .  S
Zn777       O782   1.959       .  S
Zn777       O786   1.980       .  S
Zn777       O793   1.976       .  S
Zn778       O781   1.905       .  S
Zn778       O783   1.993       .  S
Zn778       O785   1.932       .  S
Zn778       O789   2.000       .  S
Zn779       O781   1.908       .  S
Zn779       O784   1.971       .  S
Zn779       O787   1.977       .  S
Zn779       O790   1.965       .  S
Zn780       O781   1.902       .  S
Zn780       O788   1.947       .  S
Zn780       O791   2.006       .  S
Zn780       O792   1.971       .  S
O782        C794   1.266       .  A
O783        C795   1.270       .  A
O784        C796   1.268       .  A
O785        C794   1.267       .  A
O786        C796   1.267       .  A
O787        C795   1.269       .  A
O788        C797   1.268       .  A
O789        C798   1.270       .  A
O790        C797   1.268       .  A
O791        C798   1.270       .  A
O792        C799   1.268       .  A
O793        C799   1.268       .  A
C794       C3269   1.423       .  S
C795       C1849   1.468       .  S
C796       C3719   1.454       .  S
C797       C1826   1.430       .  S
C798       C1866   1.460       .  S
C799       C2759   1.455       .  S
N800        C804   1.349       .  A
N800        C801   1.348   1_554  A
N800       C2549   1.441       .  S
C801        C802   1.401   1_556  A
C801       C2119   1.496       .  S
C802        C803   1.405       .  A
C802       C2219   1.464   1_554  S
C803        C804   1.379       .  A
C803       C3519   1.508       .  S
C804       C1829   1.445       .  S
N805        C809   1.356       .  A
N805        C806   1.349       .  A
N805       C1789   1.428       .  S
C806        C807   1.376       .  A
C806       C1959   1.473       .  S
C807        C808   1.407       .  A
C807       C1809   1.497       .  S
C808        C809   1.414       .  A
C808       C1816   1.473       .  S
C809       C1796   1.526       .  S
N810        C814   1.344       .  A
N810        C811   1.350       .  A
N810       C1746   1.420       .  S
C811        C812   1.377       .  A
C811       C2009   1.474       .  S
C812        C813   1.397       .  A
C812       C1766   1.490       .  S
C813        C814   1.406       .  A
C813       C1776   1.462       .  S
C814       C1759   1.516       .  S
N815        C819   1.356       .  A
N815        C816   1.359       .  A
N815       C2129   1.441       .  S
C816        C817   1.382       .  A
C816       C1706   1.467       .  S
C817        C818   1.420       .  A
C817       C1716   1.537       .  S
C818        C819   1.426       .  A
C818       C1736   1.464       .  S
C819       C1726   1.542       .  S
N820        C824   1.339       .  A
N820        C821   1.344       .  A
N820       C1666   1.423       .  S
C821        C822   1.385       .  A
C821       C1906   1.467       .  S
C822        C823   1.402       .  A
C822       C1686   1.482       .  S
C823        C824   1.386       .  A
C823       C1696   1.465       .  S
C824       C1676   1.486       .  S
C825        C827   1.548       .  S
C825        C829   1.537       .  S
C825        C828   1.567       .  S
C825       C1646   1.587       .  S
C826        C830   1.546       .  S
C826        C832   1.552       .  S
C826        C831   1.550       .  S
C826       C1719   1.588       .  S
C827        C835   1.385       .  A
C827        C830   1.402       .  A
C828        C839   1.391       .  A
C828        C831   1.406       .  A
C829        C843   1.374       .  A
C829        C832   1.415       .  A
C830        C833   1.377       .  A
C831        C837   1.379       .  A
C832        C840   1.391       .  A
C833        N834   1.361       .  A
C833        H846   1.080       .  S
N834        C835   1.364       .  A
N834       C1679   1.452       .  S
C835        H836   1.082       .  S
C837        N838   1.365       .  A
C837        H847   1.080       .  S
N838        C839   1.371       .  A
N838       C1636   1.466       .  S
C839        H845   1.080       .  S
C840        N841   1.352       .  A
C840        H842   1.082       .  S
N841        C843   1.344       .  A
N841       C1656   1.429       .  S
C843        H844   1.082       .  S
C848        C850   1.523       .  S
C848        C852   1.534   1_455  S
C848        C851   1.547       .  S
C848       C1689   1.544   1_455  S
C849        C853   1.564       .  S
C849        C855   1.543       .  S
C849        C854   1.584       .  S
C849       C1859   1.567       .  S
C850        C858   1.369       .  A
C850        C853   1.391       .  A
C851        C862   1.380       .  A
C851        C854   1.406       .  A
C852        C866   1.388       .  A
C852        C855   1.399   1_655  A
C853        C856   1.403       .  A
C854        C860   1.406       .  A
C855        C863   1.377   1_455  A
C856        N857   1.369       .  A
C856        H869   1.082       .  S
N857        C858   1.348       .  A
N857       C1806   1.446       .  S
C858        H859   1.083       .  S
C860        N861   1.374       .  A
C860        H870   1.082       .  S
N861        C862   1.360       .  A
N861       C1936   1.467       .  S
C862        H868   1.082   1_455  S
C863        N864   1.352       .  A
C863        H865   1.081   1_655  S
N864        C866   1.356       .  A
N864       C1839   1.440       .  S
C866        H867   1.082       .  S
C871        C873   1.567       .  S
C871        C875   1.591   1_455  S
C871        C874   1.552       .  S
C871       C2089   1.575   1_455  S
C872        C876   1.543       .  S
C872        C878   1.546       .  S
C872        C877   1.535       .  S
C872       C1769   1.551       .  S
C873        C881   1.394       .  A
C873        C876   1.400       .  A
C874        C885   1.389       .  A
C874        C877   1.395       .  A
C875        C889   1.426       .  A
C875        C878   1.407   1_655  A
C876        C879   1.400       .  A
C877        C883   1.372       .  A
C878        C886   1.383       .  A
C879        N880   1.361       .  A
C879        H892   1.082       .  S
N880        C881   1.359       .  A
N880       C2039   1.467       .  S
C881        H882   1.079       .  S
C883        N884   1.353       .  A
C883        H893   1.082       .  S
N884        C885   1.362       .  A
N884       C1996   1.439       .  S
C885        H891   1.082   1_455  S
C886        N887   1.355   1_455  A
C886        H888   1.080       .  S
N887        C889   1.382       .  A
N887       C1729   1.486       .  S
C889        H890   1.082       .  S
C894        C896   1.559       .  S
C894        C898   1.562       .  S
C894        C897   1.568       .  S
C894       C1799   1.562       .  S
C895        C899   1.530       .  S
C895        C901   1.560       .  S
C895        C900   1.546       .  S
C895       C1616   1.552       .  S
C896        C904   1.406       .  A
C896        C899   1.383       .  A
C897        C908   1.395       .  A
C897        C900   1.403       .  A
C898        C912   1.393       .  A
C898        C901   1.412       .  A
C899        C902   1.378       .  A
C900        C906   1.386       .  A
C901        C909   1.398       .  A
C902        N903   1.351       .  A
C902        H915   1.082       .  S
N903        C904   1.372       .  A
N903       C1626   1.456       .  S
C904        H905   1.082       .  S
C906        N907   1.358       .  A
C906        H916   1.082       .  S
N907        C908   1.359       .  A
N907       C1606   1.450       .  S
C908        H914   1.079       .  S
C909        N910   1.366       .  A
C909        H911   1.081       .  S
N910        C912   1.365       .  A
N910       C1756   1.475       .  S
C912        H913   1.079       .  S
N917        C921   1.355       .  A
N917        C918   1.348       .  A
N917       C3316   1.454       .  S
C918        C919   1.407       .  A
C918       C1586   1.489       .  S
C919        C920   1.419       .  A
C919       C2189   1.500       .  S
C920        C921   1.400       .  A
C920       C3646   1.519       .  S
C921       C1596   1.465       .  S
N922        C926   1.348       .  A
N922        C923   1.349       .  A
N922       C2999   1.452       .  S
C923        C924   1.391       .  A
C923       C1569   1.456       .  S
C924        C925   1.402       .  A
C924       C1629   1.503       .  S
C925        C926   1.398       .  A
C925       C3329   1.481       .  S
C926       C1576   1.467       .  S
N927        C931   1.350       .  A
N927        C928   1.350       .  A
N927       C3636   1.447       .  S
C928        C929   1.405       .  A
C928       C1546   1.493       .  S
C929        C930   1.400       .  A
C929       C2509   1.466       .  S
C930        C931   1.380       .  A
C930       C3009   1.513       .  S
C931       C1559   1.438       .  S
Zn932       O936   1.908       .  S
Zn932       O937   1.981       .  S
Zn932       O941   1.944       .  S
Zn932       O948   1.928       .  S
Zn933       O936   1.918       .  S
Zn933       O938   1.959       .  S
Zn933       O940   1.987       .  S
Zn933       O944   1.952       .  S
Zn934       O936   1.927       .  S
Zn934       O939   2.018       .  S
Zn934       O942   1.944       .  S
Zn934       O945   1.972       .  S
Zn935       O936   1.933       .  S
Zn935       O943   2.020       .  S
Zn935       O946   2.044       .  S
Zn935       O947   1.982       .  S
O937        C949   1.266       .  A
O938        C950   1.269       .  A
O939        C951   1.269       .  A
O940        C949   1.267       .  A
O941        C951   1.263       .  A
O942        C950   1.269       .  A
O943        C952   1.273       .  A
O944        C953   1.266       .  A
O945        C952   1.267       .  A
O946        C953   1.276       .  A
O947        C954   1.273       .  A
O948        C954   1.265       .  A
C949       C1579   1.462       .  S
C950       C1556   1.433       .  S
C951       C1599   1.450       .  S
C952       C3679   1.463       .  S
C953       C3039   1.462       .  S
C954       C3359   1.441       .  S
Zn955       O959   1.961       .  S
Zn955       O960   2.000       .  S
Zn955       O964   2.047       .  S
Zn955       O971   2.009       .  S
Zn956       O959   1.948       .  S
Zn956       O961   1.985       .  S
Zn956       O963   1.988       .  S
Zn956       O967   2.017       .  S
Zn957       O959   1.957       .  S
Zn957       O962   2.033       .  S
Zn957       O965   2.007       .  S
Zn957       O968   2.013       .  S
Zn958       O959   1.952       .  S
Zn958       O966   2.002       .  S
Zn958       O969   2.036       .  S
Zn958       O970   1.974       .  S
O960        C972   1.272       .  A
O961        C973   1.271       .  A
O962        C974   1.273       .  A
O963        C972   1.270       .  A
O964        C974   1.275       .  A
O965        C973   1.274       .  A
O966        C975   1.273       .  A
O967        C976   1.270       .  A
O968        C975   1.273       .  A
O969        C976   1.272       .  A
O970        C977   1.269       .  A
O971        C977   1.273       .  A
C972       C3726   1.459       .  S
C973       C1529   1.462       .  S
C974       C3279   1.481       .  S
C975       C1536   1.463       .  S
C976       C1549   1.480       .  S
C977       C2769   1.456       .  S
Zn978       O982   1.914       .  S
Zn978       O983   1.995       .  S
Zn978       O987   1.970       .  S
Zn978       O994   1.959       .  S
Zn979       O982   1.906       .  S
Zn979       O984   1.913       .  S
Zn979       O986   1.956       .  S
Zn979       O990   1.920       .  S
Zn980       O982   1.932       .  S
Zn980       O985   1.996       .  S
Zn980       O988   1.990       .  S
Zn980       O991   1.997       .  S
Zn981       O982   1.931       .  S
Zn981       O989   2.002       .  S
Zn981       O992   2.009       .  S
Zn981       O993   1.981       .  S
O983        C995   1.267       .  A
O984        C996   1.260       .  A
O985        C997   1.273       .  A
O986        C995   1.263       .  A
O987        C997   1.270       .  A
O988        C996   1.268       .  A
O989        C998   1.272       .  A
O990        C999   1.261       .  A
O991        C998   1.272       .  A
O992        C999   1.270       .  A
O993       C1000   1.271       .  A
O994       C1000   1.268       .  A
C995       C1786   1.452       .  S
C996       C3596   1.438       .  S
C997       C1506   1.457       .  S
C998       C1516   1.459       .  S
C999       C3089   1.445       .  S
C1000      C1566   1.445       .  S
Zn1001     O1005   1.952       .  S
Zn1001     O1006   2.015       .  S
Zn1001     O1010   2.015       .  S
Zn1001     O1017   2.004       .  S
Zn1002     O1005   1.950       .  S
Zn1002     O1007   2.046       .  S
Zn1002     O1009   2.000       .  S
Zn1002     O1013   1.970       .  S
Zn1003     O1005   1.927       .  S
Zn1003     O1008   1.972       .  S
Zn1003     O1011   2.008       .  S
Zn1003     O1014   1.945       .  S
Zn1004     O1005   1.999       .  S
Zn1004     O1012   2.069       .  S
Zn1004     O1015   2.083       .  S
Zn1004     O1016   2.091       .  S
O1006      C1018   1.275       .  A
O1007      C1019   1.273       .  A
O1008      C1020   1.268       .  A
O1009      C1018   1.272       .  A
O1010      C1020   1.272       .  A
O1011      C1019   1.270       .  A
O1012      C1021   1.279       .  A
O1013      C1022   1.271       .  A
O1014      C1021   1.265       .  A
O1015      C1022   1.283       .  A
O1016      C1023   1.282       .  A
O1017      C1023   1.272       .  A
C1018      C2446   1.482       .  S
C1019      C3409   1.497       .  S
C1020      C2959   1.474       .  S
C1021      C1486   1.489       .  S
C1022      C1589   1.483       .  S
C1023      C1496   1.505       .  S
N1024      C1028   1.347       .  A
N1024      C1025   1.346       .  A
N1024      C3479   1.449       .  S
C1025      C1026   1.393       .  A
C1025      C1519   1.470       .  S
C1026      C1027   1.398       .  A
C1026      C3016   1.477       .  S
C1027      C1028   1.386       .  A
C1027      C2499   1.492       .  S
C1028      C1476   1.445       .  S
N1029      C1033   1.346       .  A
N1029      C1030   1.352       .  A
N1029      C1639   1.453       .  S
C1030      C1031   1.393       .  A
C1030      C1456   1.449       .  S
C1031      C1032   1.396       .  A
C1031      C3499   1.500       .  S
C1032      C1033   1.395       .  A
C1032      C2279   1.480       .  S
C1033      C1466   1.467       .  S
N1034      C1038   1.351       .  A
N1034      C1035   1.349       .  A
N1034      C2489   1.457       .  S
C1035      C1036   1.403       .  A
C1035      C1539   1.473       .  S
C1036      C1037   1.443       .  A
C1036      C3166   1.524       .  S
C1037      C1038   1.408       .  A
C1037      C1649   1.526       .  S
C1038      C1446   1.476       .  S
Zn1039     O1043   1.924       .  S
Zn1039     O1044   2.017       .  S
Zn1039     O1048   2.027       .  S
Zn1039     O1055   2.044       .  S
Zn1040     O1043   1.907       .  S
Zn1040     O1045   2.042       .  S
Zn1040     O1047   1.976       .  S
Zn1040     O1051   2.014       .  S
Zn1041     O1043   1.870       .  S
Zn1041     O1046   1.911       .  S
Zn1041     O1049   1.971       .  S
Zn1041     O1052   1.948       .  S
Zn1042     O1043   1.904       .  S
Zn1042     O1050   1.967       .  S
Zn1042     O1053   1.953       .  S
Zn1042     O1054   1.974       .  S
O1044      C1056   1.280       .  A
O1045      C1057   1.273       .  A
O1046      C1058   1.264       .  A
O1047      C1056   1.275       .  A
O1048      C1058   1.276       .  A
O1049      C1057   1.266       .  A
O1050      C1059   1.267       .  A
O1051      C1060   1.275       .  A
O1052      C1059   1.266       .  A
O1053      C1060   1.268       .  A
O1054      C1061   1.268       .  A
O1055      C1061   1.276       .  A
C1056      C1669   1.476       .  S
C1057      C1449   1.488       .  S
C1058      C1459   1.468       .  S
C1059      C1479   1.455       .  S
C1060      C2709   1.473       .  S
C1061      C3549   1.481       .  S
N1062      C1066   1.357       .  A
N1062      C1063   1.350       .  A
N1062      C3156   1.463       .  S
C1063      C1064   1.401       .  A
C1063      C1526   1.470       .  S
C1064      C1065   1.417       .  A
C1064      C3659   1.502       .  S
C1065      C1066   1.404       .  A
C1065      C2179   1.518       .  S
C1066      C1436   1.465       .  S
N1067      C1071   1.352       .  A
N1067      C1068   1.347       .  A
N1067      C2579   1.447       .  S
C1068      C1069   1.376       .  A
C1068      C1426   1.446       .  S
C1069      C1070   1.373       .  A
C1069      C1659   1.475       .  S
C1070      C1071   1.392       .  A
C1070      C3179   1.465       .  S
C1071      C1416   1.463       .  S
N1072      C1076   1.359       .  A
N1072      C1073   1.344       .  A
N1072      C2166   1.466       .  S
C1073      C1074   1.408       .  A
C1073      C1499   1.490       .  S
C1074      C1075   1.407       .  A
C1074      C2849   1.461       .  S
C1075      C1076   1.400       .  A
C1075      C2589   1.547       .  S
C1076      C1406   1.427       .  S
Zn1077     O1081   1.877       .  S
Zn1077     O1082   1.984       .  S
Zn1077     O1086   1.952       .  S
Zn1077     O1093   1.934       .  S
Zn1078     O1081   1.844       .  S
Zn1078     O1083   1.905       .  S
Zn1078     O1085   1.952       .  S
Zn1078     O1089   1.911       .  S
Zn1079     O1081   1.895       .  S
Zn1079     O1084   2.008       .  S
Zn1079     O1087   1.969       .  S
Zn1079     O1090   1.950       .  S
Zn1080     O1081   1.897       .  S
Zn1080     O1088   2.006       .  S
Zn1080     O1091   2.042       .  S
Zn1080     O1092   1.995       .  S
O1082      C1094   1.268       .  A
O1083      C1095   1.265       .  A
O1084      C1096   1.271       .  A
O1085      C1094   1.265       .  A
O1086      C1096   1.266       .  A
O1087      C1095   1.269       .  A
O1088      C1097   1.273       .  A
O1089      C1098   1.261       .  A
O1090      C1097   1.267       .  A
O1091      C1098   1.277       .  A
O1092      C1099   1.276       .  A
O1093      C1099   1.267       .  A
C1094      C1419   1.460       .  S
C1095      C1409   1.436       .  S
C1096      C1439   1.453       .  S
C1097      C2389   1.444       .  S
C1098      C2609   1.445       .  S
C1099      C3226   1.440       .  S
N1100      C1104   1.349       .  A
N1100      C1101   1.347       .  A
N1100      C2839   1.444       .  S
C1101      C1102   1.395       .  A
C1101      C1489   1.473       .  S
C1102      C1103   1.402       .  A
C1102      C3339   1.484       .  S
C1103      C1104   1.388       .  A
C1103      C1619   1.493       .  S
C1104      C1396   1.458       .  S
N1105      C1109   1.349       .  A
N1105      C1106   1.347       .  A
N1105      C2259   1.447       .  S
C1106      C1107   1.394       .  A
C1106      C1389   1.472       .  S
C1107      C1108   1.396       .  A
C1107      C2599   1.476       .  S
C1108      C1109   1.385       .  A
C1108      C2859   1.495       .  S
C1109      C1376   1.448       .  S
N1110      C1114   1.348       .  A
N1110      C1111   1.347       .  A
N1110      C1609   1.454       .  S
C1111      C1112   1.395       .  A
C1111      C1509   1.465       .  S
C1112      C1113   1.400       .  A
C1112      C3489   1.486       .  S
C1113      C1114   1.390       .  A
C1113      C2269   1.492       .  S
C1114      C1369   1.453       .  S
Zn1115     O1119   1.932       .  S
Zn1115     O1120   1.991       .  S
Zn1115     O1124   2.025       .  S
Zn1115     O1131   2.032       .  S
Zn1116     O1119   1.912       .  S
Zn1116     O1121   1.965       .  S
Zn1116     O1123   1.958       .  S
Zn1116     O1127   1.978       .  S
Zn1117     O1119   1.922       .  S
Zn1117     O1122   2.005       .  S
Zn1117     O1125   2.014       .  S
Zn1117     O1128   1.990       .  S
Zn1118     O1119   1.888       .  S
Zn1118     O1126   1.925       .  S
Zn1118     O1129   1.971       .  S
Zn1118     O1130   1.938       .  S
O1120      C1132   1.273       .  A
O1121      C1133   1.268       .  A
O1122      C1134   1.276       .  A
O1123      C1132   1.269       .  A
O1124      C1134   1.277       .  A
O1125      C1133   1.274       .  A
O1126      C1135   1.263       .  A
O1127      C1136   1.267       .  A
O1128      C1135   1.269       .  A
O1129      C1136   1.265       .  A
O1130      C1137   1.265       .  A
O1131      C1137   1.274       .  A
C1132      C1749   1.460       .  S
C1133      C2289   1.477       .  S
C1134      C2909   1.486       .  S
C1135      C1379   1.465       .  S
C1136      C1366   1.461       .  S
C1137      C1399   1.477       .  S
Zn1138     O1142   1.930       .  S
Zn1138     O1143   2.026       .  S
Zn1138     O1147   1.905       .  S
Zn1138     O1154   2.005       .  S
Zn1139     O1142   1.903       .  S
Zn1139     O1144   1.930       .  S
Zn1139     O1146   1.957       .  S
Zn1139     O1150   1.934       .  S
Zn1140     O1142   1.965       .  S
Zn1140     O1145   2.002       .  S
Zn1140     O1148   2.042       .  S
Zn1140     O1151   2.044       .  S
Zn1141     O1142   1.908       .  S
Zn1141     O1149   1.975       .  S
Zn1141     O1152   1.960       .  S
Zn1141     O1153   1.993       .  S
O1143      C1155   1.272       .  A
O1144      C1156   1.262       .  A
O1145      C1157   1.275       .  A
O1146      C1155   1.264       .  A
O1147      C1157   1.263       .  A
O1148      C1156   1.274       .  A
O1149      C1158   1.268       .  A
O1150      C1159   1.264       .  A
O1151      C1158   1.276       .  A
O1152      C1159   1.271       .  A
O1153      C1160   1.269       .  A
O1154      C1160   1.271       .  A
C1155      C1709   1.480       .  S
C1156      C1469   1.475       .  S
C1157      C1429   1.454       .  S
C1158      C1386   1.481       .  S
C1159      C2339   1.449       .  S
C1160      C2659   1.481       .  S
N1161      C1166   1.347       .  A
N1161      C1165   1.347       .  A
N1161      H1193   1.036   1_655  S
N1162      C1169   1.353       .  A
N1162      C1170   1.352       .  A
N1163      C1168   1.348       .  A
N1163      C1167   1.344       .  A
N1163      H1194   1.036       .  S
N1164      C1171   1.348   1_455  A
N1164      C1172   1.351       .  A
C1165      C1173   1.387       .  A
C1165      C1181   1.406       .  A
C1166      C1182   1.409       .  A
C1166      C1174   1.387       .  A
C1167      C1175   1.387       .  A
C1167      C1184   1.402       .  A
C1168      C1183   1.408       .  A
C1168      C1176   1.387       .  A
C1169      C1181   1.407   1_455  A
C1169      C1177   1.385       .  A
C1170      C1184   1.412       .  A
C1170      C1178   1.389       .  A
C1171      C1179   1.390       .  A
C1171      C1182   1.413       .  A
C1172      C1180   1.384       .  A
C1172      C1183   1.406       .  A
C1173      C1174   1.378       .  A
C1173      H1185   1.083       .  S
C1174      H1186   1.083       .  S
C1175      C1176   1.377       .  A
C1175      H1187   1.083       .  S
C1176      H1188   1.083       .  S
C1177      C1178   1.352       .  A
C1177      H1189   1.080       .  S
C1178      H1190   1.078       .  S
C1179      C1180   1.364   1_655  A
C1179      H1191   1.082       .  S
C1180      H1192   1.082       .  S
C1181      C3309   1.479       .  S
C1182      C3259   1.472       .  S
C1183      C3439   1.477       .  S
C1184      C3389   1.473       .  S
N1195      C1200   1.347       .  A
N1195      C1199   1.348       .  A
N1195      H1227   1.041       .  S
N1196      C1203   1.342       .  A
N1196      C1204   1.343       .  A
N1197      C1202   1.339   1_455  A
N1197      C1201   1.342       .  A
N1197      H1228   1.044       .  S
N1198      C1205   1.348       .  A
N1198      C1206   1.350       .  A
C1199      C1207   1.387       .  A
C1199      C1215   1.411       .  A
C1200      C1216   1.401   1_455  A
C1200      C1208   1.386       .  A
C1201      C1209   1.381       .  A
C1201      C1218   1.392       .  A
C1202      C1217   1.396       .  A
C1202      C1210   1.388       .  A
C1203      C1215   1.401       .  A
C1203      C1211   1.386       .  A
C1204      C1218   1.405       .  A
C1204      C1212   1.387       .  A
C1205      C1213   1.387       .  A
C1205      C1216   1.411       .  A
C1206      C1214   1.386       .  A
C1206      C1217   1.411       .  A
C1207      C1208   1.376       .  A
C1207      H1219   1.083       .  S
C1208      H1220   1.081       .  S
C1209      C1210   1.379   1_455  A
C1209      H1221   1.081       .  S
C1210      H1222   1.080       .  S
C1211      C1212   1.367       .  A
C1211      H1223   1.081       .  S
C1212      H1224   1.079       .  S
C1213      C1214   1.380       .  A
C1213      H1225   1.082       .  S
C1214      H1226   1.082       .  S
C1215      C1819   1.481       .  S
C1216      C1699   1.479       .  S
C1217      C1739   1.497       .  S
C1218      C1779   1.464       .  S
N1229      C1234   1.355       .  A
N1229      C1233   1.351       .  A
N1229      H1261   1.042       .  S
N1230      C1237   1.342       .  A
N1230      C1238   1.348   1_554  A
N1231      C1236   1.344       .  A
N1231      C1235   1.349       .  A
N1231      H1262   1.043   1_556  S
N1232      C1239   1.343       .  A
N1232      C1240   1.344       .  A
C1233      C1241   1.392       .  A
C1233      C1249   1.415       .  A
C1234      C1250   1.407       .  A
C1234      C1242   1.384       .  A
C1235      C1243   1.387       .  A
C1235      C1252   1.405       .  A
C1236      C1251   1.404       .  A
C1236      C1244   1.388       .  A
C1237      C1249   1.401       .  A
C1237      C1245   1.390       .  A
C1238      C1252   1.408       .  A
C1238      C1246   1.384       .  A
C1239      C1247   1.387       .  A
C1239      C1250   1.398       .  A
C1240      C1248   1.386       .  A
C1240      C1251   1.402   1_554  A
C1241      C1242   1.361       .  A
C1241      H1253   1.078       .  S
C1242      H1254   1.082       .  S
C1243      C1244   1.369       .  A
C1243      H1255   1.082       .  S
C1244      H1256   1.083       .  S
C1245      C1246   1.376   1_554  A
C1245      H1257   1.083       .  S
C1246      H1258   1.083       .  S
C1247      C1248   1.376       .  A
C1247      H1259   1.083       .  S
C1248      H1260   1.082       .  S
C1249      C2749   1.474       .  S
C1250      C2799   1.477       .  S
C1251      C2649   1.468       .  S
C1252      C2699   1.480       .  S
N1263      C1268   1.347       .  A
N1263      C1267   1.343       .  A
N1263      H1295   1.045       .  S
N1264      C1271   1.344       .  A
N1264      C1272   1.346   1_565  A
N1265      C1270   1.343       .  A
N1265      C1269   1.345       .  A
N1265      H1296   1.043       .  S
N1266      C1273   1.344       .  A
N1266      C1274   1.338   1_565  A
C1267      C1275   1.388       .  A
C1267      C1283   1.398       .  A
C1268      C1284   1.410       .  A
C1268      C1276   1.385       .  A
C1269      C1277   1.390       .  A
C1269      C1286   1.410       .  A
C1270      C1285   1.391       .  A
C1270      C1278   1.382       .  A
C1271      C1283   1.406       .  A
C1271      C1279   1.382       .  A
C1272      C1286   1.410       .  A
C1272      C1280   1.385       .  A
C1273      C1281   1.389       .  A
C1273      C1284   1.404       .  A
C1274      C1282   1.383   1_545  A
C1274      C1285   1.397       .  A
C1275      C1276   1.379       .  A
C1275      H1287   1.081       .  S
C1276      H1288   1.082       .  S
C1277      C1278   1.378       .  A
C1277      H1289   1.082   1_545  S
C1278      H1290   1.082   1_545  S
C1279      C1280   1.384   1_565  A
C1279      H1291   1.081       .  S
C1280      H1292   1.081       .  S
C1281      C1282   1.371       .  A
C1281      H1293   1.079       .  S
C1282      H1294   1.082   1_565  S
C1283      C2329   1.481       .  S
C1284      C2379   1.479       .  S
C1285      C2426   1.463       .  S
C1286      C2479   1.487       .  S
N1297      C1302   1.345       .  A
N1297      C1301   1.344       .  A
N1297      H1329   1.037       .  S
N1298      C1305   1.352       .  A
N1298      C1306   1.352       .  A
N1299      C1304   1.347       .  A
N1299      C1303   1.346       .  A
N1299      H1330   1.035   1_556  S
N1300      C1307   1.349       .  A
N1300      C1308   1.347   1_554  A
C1301      C1309   1.388       .  A
C1301      C1317   1.402       .  A
C1302      C1318   1.401       .  A
C1302      C1310   1.386       .  A
C1303      C1311   1.386       .  A
C1303      C1320   1.404       .  A
C1304      C1319   1.408       .  A
C1304      C1312   1.387       .  A
C1305      C1317   1.410       .  A
C1305      C1313   1.388       .  A
C1306      C1320   1.409   1_554  A
C1306      C1314   1.387       .  A
C1307      C1315   1.384       .  A
C1307      C1318   1.400       .  A
C1308      C1316   1.391       .  A
C1308      C1319   1.410       .  A
C1309      C1310   1.377       .  A
C1309      H1321   1.082       .  S
C1310      H1322   1.083       .  S
C1311      C1312   1.379       .  A
C1311      H1323   1.083       .  S
C1312      H1324   1.083       .  S
C1313      C1314   1.352       .  A
C1313      H1325   1.080       .  S
C1314      H1326   1.080       .  S
C1315      C1316   1.360   1_554  A
C1315      H1327   1.082       .  S
C1316      H1328   1.081       .  S
C1317      C3116   1.471       .  S
C1318      C3069   1.466       .  S
C1319      C2989   1.470       .  S
C1320      C2939   1.472       .  S
N1331      C1336   1.339   1_565  A
N1331      C1335   1.347       .  A
N1331      H1363   1.045   1_565  S
N1332      C1339   1.332       .  A
N1332      C1340   1.328       .  A
N1333      C1338   1.342       .  A
N1333      C1337   1.345       .  A
N1333      H1364   1.040       .  S
N1334      C1341   1.348       .  A
N1334      C1342   1.351       .  A
C1335      C1343   1.387       .  A
C1335      C1351   1.413       .  A
C1336      C1352   1.396       .  A
C1336      C1344   1.387   1_545  A
C1337      C1345   1.391       .  A
C1337      C1354   1.418       .  A
C1338      C1353   1.393   1_565  A
C1338      C1346   1.382       .  A
C1339      C1351   1.397       .  A
C1339      C1347   1.388       .  A
C1340      C1354   1.395       .  A
C1340      C1348   1.388       .  A
C1341      C1349   1.389       .  A
C1341      C1352   1.412       .  A
C1342      C1350   1.385       .  A
C1342      C1353   1.411       .  A
C1343      C1344   1.388       .  A
C1343      H1355   1.082       .  S
C1344      H1356   1.082   1_565  S
C1345      C1346   1.381       .  A
C1345      H1357   1.082       .  S
C1346      H1358   1.082       .  S
C1347      C1348   1.383       .  A
C1347      H1359   1.082       .  S
C1348      H1360   1.082       .  S
C1349      C1350   1.381       .  A
C1349      H1361   1.082       .  S
C1350      H1362   1.081       .  S
C1351      C3579   1.476       .  S
C1352      C3756   1.482       .  S
C1353      C3706   1.487       .  S
C1354      C3626   1.461       .  S
C1365      C1366   1.406       .  A
C1365      C1370   1.390       .  A
C1365      F1372   1.358       .  S
C1366      C1367   1.408       .  A
C1367      C1368   1.390       .  A
C1367      F1374   1.358       .  S
C1368      C1369   1.395       .  A
C1368      F1373   1.358       .  S
C1369      C1370   1.400       .  A
C1370      F1371   1.358       .  S
C1375      C1376   1.397       .  A
C1375      C1380   1.390       .  A
C1375      F1382   1.358       .  S
C1376      C1377   1.394       .  A
C1377      C1378   1.383       .  A
C1377      F1384   1.358       .  S
C1378      C1379   1.413       .  A
C1378      F1383   1.359       .  S
C1379      C1380   1.409       .  A
C1380      F1381   1.358       .  S
C1385      C1386   1.407       .  A
C1385      C1390   1.398       .  A
C1385      F1392   1.357       .  S
C1386      C1387   1.413       .  A
C1387      C1388   1.396       .  A
C1387      F1394   1.358       .  S
C1388      C1389   1.398       .  A
C1388      F1393   1.358       .  S
C1389      C1390   1.403       .  A
C1390      F1391   1.357       .  S
C1395      C1396   1.392       .  A
C1395      C1400   1.385       .  A
C1395      F1402   1.358       .  S
C1396      C1397   1.400       .  A
C1397      C1398   1.398       .  A
C1397      F1404   1.358       .  S
C1398      C1399   1.410       .  A
C1398      F1403   1.358       .  S
C1399      C1400   1.415       .  A
C1400      F1401   1.358       .  S
C1405      C1406   1.392       .  A
C1405      C1410   1.374       .  A
C1405      F1412   1.358       .  S
C1406      C1407   1.397       .  A
C1407      C1408   1.386       .  A
C1407      F1414   1.358       .  S
C1408      C1409   1.402       .  A
C1408      F1413   1.358       .  S
C1409      C1410   1.404       .  A
C1410      F1411   1.359       .  S
C1415      C1416   1.400       .  A
C1415      C1420   1.390       .  A
C1415      F1422   1.358       .  S
C1416      C1417   1.404       .  A
C1417      C1418   1.388       .  A
C1417      F1424   1.355       .  S
C1418      C1419   1.403       .  A
C1418      F1423   1.359       .  S
C1419      C1420   1.407       .  A
C1420      F1421   1.358       .  S
C1425      C1426   1.402       .  A
C1425      C1430   1.386       .  A
C1425      F1432   1.357       .  S
C1426      C1427   1.392       .  A
C1427      C1428   1.381       .  A
C1427      F1434   1.359       .  S
C1428      C1429   1.413       .  A
C1428      F1433   1.359       .  S
C1429      C1430   1.402       .  A
C1430      F1431   1.358       .  S
C1435      C1436   1.400       .  A
C1435      C1440   1.392       .  A
C1435      F1442   1.357       .  S
C1436      C1437   1.405       .  A
C1437      C1438   1.391       .  A
C1437      F1444   1.358       .  S
C1438      C1439   1.401       .  A
C1438      F1443   1.359       .  S
C1439      C1440   1.404       .  A
C1440      F1441   1.358       .  S
C1445      C1446   1.402       .  A
C1445      C1450   1.400       .  A
C1445      F1452   1.358       .  S
C1446      C1447   1.399       .  A
C1447      C1448   1.395       .  A
C1447      F1454   1.356       .  S
C1448      C1449   1.415       .  A
C1448      F1453   1.358       .  S
C1449      C1450   1.411       .  A
C1450      F1451   1.357       .  S
C1455      C1456   1.391       .  A
C1455      C1460   1.382       .  A
C1455      F1462   1.358       .  S
C1456      C1457   1.400       .  A
C1457      C1458   1.393       .  A
C1457      F1464   1.357       .  S
C1458      C1459   1.406       .  A
C1458      F1463   1.358       .  S
C1459      C1460   1.416       .  A
C1460      F1461   1.359       .  S
C1465      C1466   1.396       .  A
C1465      C1470   1.389       .  A
C1465      F1472   1.358       .  S
C1466      C1467   1.403       .  A
C1467      C1468   1.398       .  A
C1467      F1474   1.357       .  S
C1468      C1469   1.406       .  A
C1468      F1473   1.357       .  S
C1469      C1470   1.414       .  A
C1470      F1471   1.359       .  S
C1475      C1476   1.396       .  A
C1475      C1480   1.391       .  A
C1475      F1482   1.358       .  S
C1476      C1477   1.395       .  A
C1477      C1478   1.381       .  A
C1477      F1484   1.358       .  S
C1478      C1479   1.405       .  A
C1478      F1483   1.358       .  S
C1479      C1480   1.409       .  A
C1480      F1481   1.358       .  S
C1485      C1486   1.418       .  A
C1485      C1490   1.390       .  A
C1485      F1492   1.358       .  S
C1486      C1487   1.410       .  A
C1487      C1488   1.404       .  A
C1487      F1494   1.357       .  S
C1488      C1489   1.404       .  A
C1488      F1493   1.357       .  S
C1489      C1490   1.394       .  A
C1490      F1491   1.358       .  S
C1495      C1496   1.411       .  A
C1495      C1500   1.408       .  A
C1495      F1502   1.357       .  S
C1496      C1497   1.419       .  A
C1497      C1498   1.403       .  A
C1497      F1504   1.358       .  S
C1498      C1499   1.399       .  A
C1498      F1503   1.358       .  S
C1499      C1500   1.407       .  A
C1500      F1501   1.357       .  S
C1505      C1506   1.407       .  A
C1505      C1510   1.390       .  A
C1505      F1512   1.359       .  S
C1506      C1507   1.399       .  A
C1507      C1508   1.392       .  A
C1507      F1514   1.358       .  S
C1508      C1509   1.407       .  A
C1508      F1513   1.356       .  S
C1509      C1510   1.397       .  A
C1510      F1511   1.358       .  S
C1515      C1516   1.404       .  A
C1515      C1520   1.394       .  A
C1515      F1522   1.358       .  S
C1516      C1517   1.399       .  A
C1517      C1518   1.396       .  A
C1517      F1524   1.358       .  S
C1518      C1519   1.406       .  A
C1518      F1523   1.357       .  S
C1519      C1520   1.401       .  A
C1520      F1521   1.358       .  S
C1525      C1526   1.403       .  A
C1525      C1530   1.393       .  A
C1525      F1532   1.356       .  S
C1526      C1527   1.402       .  A
C1527      C1528   1.393       .  A
C1527      F1534   1.357       .  S
C1528      C1529   1.405       .  A
C1528      F1533   1.358       .  S
C1529      C1530   1.403       .  A
C1530      F1531   1.358       .  S
C1535      C1536   1.405       .  A
C1535      C1540   1.398       .  A
C1535      F1542   1.358       .  S
C1536      C1537   1.401       .  A
C1537      C1538   1.394       .  A
C1537      F1544   1.358       .  S
C1538      C1539   1.403       .  A
C1538      F1543   1.357       .  S
C1539      C1540   1.403       .  A
C1540      F1541   1.357       .  S
C1545      C1546   1.407       .  A
C1545      C1550   1.401       .  A
C1545      F1552   1.355       .  S
C1546      C1547   1.408       .  A
C1547      C1548   1.404       .  A
C1547      F1554   1.357       .  S
C1548      C1549   1.407       .  A
C1548      F1553   1.358       .  S
C1549      C1550   1.404       .  A
C1550      F1551   1.358       .  S
C1555      C1556   1.401       .  A
C1555      C1560   1.385       .  A
C1555      F1562   1.358       .  S
C1556      C1557   1.400       .  A
C1557      C1558   1.381       .  A
C1557      F1564   1.359       .  S
C1558      C1559   1.397       .  A
C1558      F1563   1.358       .  S
C1559      C1560   1.396       .  A
C1560      F1561   1.358       .  S
C1565      C1566   1.405       .  A
C1565      C1570   1.386       .  A
C1565      F1572   1.359       .  S
C1566      C1567   1.397       .  A
C1567      C1568   1.390       .  A
C1567      F1574   1.358       .  S
C1568      C1569   1.405       .  A
C1568      F1573   1.356       .  S
C1569      C1570   1.396       .  A
C1570      F1571   1.357       .  S
C1575      C1576   1.402       .  A
C1575      C1580   1.394       .  A
C1575      F1582   1.358       .  S
C1576      C1577   1.403       .  A
C1577      C1578   1.392       .  A
C1577      F1584   1.355       .  S
C1578      C1579   1.404       .  A
C1578      F1583   1.358       .  S
C1579      C1580   1.404       .  A
C1580      F1581   1.358       .  S
C1585      C1586   1.408       .  A
C1585      C1590   1.406       .  A
C1585      F1592   1.357       .  S
C1586      C1587   1.402       .  A
C1587      C1588   1.393       .  A
C1587      F1594   1.357       .  S
C1588      C1589   1.411       .  A
C1588      F1593   1.359       .  S
C1589      C1590   1.406       .  A
C1590      F1591   1.357       .  S
C1595      C1596   1.402       .  A
C1595      C1600   1.394       .  A
C1595      F1602   1.357       .  S
C1596      C1597   1.403       .  A
C1597      C1598   1.391       .  A
C1597      F1604   1.357       .  S
C1598      C1599   1.401       .  A
C1598      F1603   1.358       .  S
C1599      C1600   1.402       .  A
C1600      F1601   1.358       .  S
C1605      C1606   1.409       .  A
C1605      C1610   1.409       .  A
C1605      F1612   1.357       .  S
C1606      C1607   1.408       .  A
C1607      C1608   1.407       .  A
C1607      F1614   1.357       .  S
C1608      C1609   1.406       .  A
C1608      F1613   1.356       .  S
C1609      C1610   1.407       .  A
C1610      F1611   1.357       .  S
C1615      C1616   1.419       .  A
C1615      C1620   1.410       .  A
C1615      F1622   1.354       .  S
C1616      C1617   1.420       .  A
C1617      C1618   1.404       .  A
C1617      F1624   1.357       .  S
C1618      C1619   1.402       .  A
C1618      F1623   1.358       .  S
C1619      C1620   1.404       .  A
C1620      F1621   1.357       .  S
C1625      C1626   1.412       .  A
C1625      C1630   1.408       .  A
C1625      F1632   1.357       .  S
C1626      C1627   1.408       .  A
C1627      C1628   1.415       .  A
C1627      F1634   1.356       .  S
C1628      C1629   1.412       .  A
C1628      F1633   1.357       .  S
C1629      C1630   1.407       .  A
C1630      F1631   1.357       .  S
C1635      C1636   1.418       .  A
C1635      C1640   1.410       .  A
C1635      F1642   1.356       .  S
C1636      C1637   1.420       .  A
C1637      C1638   1.406       .  A
C1637      F1644   1.355       .  S
C1638      C1639   1.401       .  A
C1638      F1643   1.357       .  S
C1639      C1640   1.404       .  A
C1640      F1641   1.357       .  S
C1645      C1646   1.424       .  A
C1645      C1650   1.422       .  A
C1645      F1652   1.355       .  S
C1646      C1647   1.426       .  A
C1647      C1648   1.423       .  A
C1647      F1654   1.355       .  S
C1648      C1649   1.410       .  A
C1648      F1653   1.357       .  S
C1649      C1650   1.411       .  A
C1650      F1651   1.357       .  S
C1655      C1656   1.402       .  A
C1655      C1660   1.396       .  A
C1655      F1662   1.357       .  S
C1656      C1657   1.401       .  A
C1657      C1658   1.398       .  A
C1657      F1664   1.357       .  S
C1658      C1659   1.404       .  A
C1658      F1663   1.358       .  S
C1659      C1660   1.405       .  A
C1660      F1661   1.357       .  S
C1665      C1666   1.397       .  A
C1665      C1670   1.391       .  A
C1665      F1672   1.357       .  S
C1666      C1667   1.393       .  A
C1667      C1668   1.390       .  A
C1667      F1674   1.357       .  S
C1668      C1669   1.416       .  A
C1668      F1673   1.358       .  S
C1669      C1670   1.410       .  A
C1670      F1671   1.358       .  S
C1675      C1676   1.403       .  A
C1675      C1680   1.404       .  A
C1675      F1682   1.357       .  S
C1676      C1677   1.401       .  A
C1677      C1678   1.400       .  A
C1677      F1684   1.358       .  S
C1678      C1679   1.413       .  A
C1678      F1683   1.356       .  S
C1679      C1680   1.413       .  A
C1680      F1681   1.357       .  S
C1685      C1686   1.401       .  A
C1685      C1690   1.404       .  A
C1685      F1692   1.357       .  S
C1686      C1687   1.402       .  A
C1687      C1688   1.401       .  A
C1687      F1694   1.358       .  S
C1688      C1689   1.420       .  A
C1688      F1693   1.356       .  S
C1689      C1690   1.418       .  A
C1690      F1691   1.355   1_655  S
C1695      C1696   1.409       .  A
C1695      C1700   1.396       .  A
C1695      F1702   1.358       .  S
C1696      C1697   1.400       .  A
C1697      C1698   1.397       .  A
C1697      F1704   1.357       .  S
C1698      C1699   1.409       .  A
C1698      F1703   1.358       .  S
C1699      C1700   1.399       .  A
C1700      F1701   1.357       .  S
C1705      C1706   1.403       .  A
C1705      C1710   1.395       .  A
C1705      F1712   1.358       .  S
C1706      C1707   1.394       .  A
C1707      C1708   1.392       .  A
C1707      F1714   1.358       .  S
C1708      C1709   1.416       .  A
C1708      F1713   1.358       .  S
C1709      C1710   1.408       .  A
C1710      F1711   1.358       .  S
C1715      C1716   1.412       .  A
C1715      C1720   1.425       .  A
C1715      F1722   1.357       .  S
C1716      C1717   1.410       .  A
C1717      C1718   1.416       .  A
C1717      F1724   1.354       .  S
C1718      C1719   1.423       .  A
C1718      F1723   1.353       .  S
C1719      C1720   1.423       .  A
C1720      F1721   1.357       .  S
C1725      C1726   1.411       .  A
C1725      C1730   1.421       .  A
C1725      F1732   1.354       .  S
C1726      C1727   1.421       .  A
C1727      C1728   1.426       .  A
C1727      F1734   1.357       .  S
C1728      C1729   1.414       .  A
C1728      F1733   1.356       .  S
C1729      C1730   1.426       .  A
C1730      F1731   1.356       .  S
C1735      C1736   1.398       .  A
C1735      C1740   1.400       .  A
C1735      F1742   1.357       .  S
C1736      C1737   1.401       .  A
C1737      C1738   1.391       .  A
C1737      F1744   1.359       .  S
C1738      C1739   1.407       .  A
C1738      F1743   1.354       .  S
C1739      C1740   1.419       .  A
C1740      F1741   1.357       .  S
C1745      C1746   1.393       .  A
C1745      C1750   1.389       .  A
C1745      F1752   1.357       .  S
C1746      C1747   1.401       .  A
C1747      C1748   1.388       .  A
C1747      F1754   1.357       .  S
C1748      C1749   1.404       .  A
C1748      F1753   1.358       .  S
C1749      C1750   1.411       .  A
C1750      F1751   1.358       .  S
C1755      C1756   1.420       .  A
C1755      C1760   1.414       .  A
C1755      F1762   1.355       .  S
C1756      C1757   1.419       .  A
C1757      C1758   1.413       .  A
C1757      F1764   1.356       .  S
C1758      C1759   1.410       .  A
C1758      F1763   1.356       .  S
C1759      C1760   1.407       .  A
C1760      F1761   1.358       .  S
C1765      C1766   1.400       .  A
C1765      C1770   1.406       .  A
C1765      F1772   1.357       .  S
C1766      C1767   1.405       .  A
C1767      C1768   1.402       .  A
C1767      F1774   1.358       .  S
C1768      C1769   1.414       .  A
C1768      F1773   1.356       .  S
C1769      C1770   1.422       .  A
C1770      F1771   1.357       .  S
C1775      C1776   1.400       .  A
C1775      C1780   1.395       .  A
C1775      F1782   1.357       .  S
C1776      C1777   1.404       .  A
C1777      C1778   1.386       .  A
C1777      F1784   1.355       .  S
C1778      C1779   1.396       .  A
C1778      F1783   1.357       .  S
C1779      C1780   1.409       .  A
C1780      F1781   1.358       .  S
C1785      C1786   1.402       .  A
C1785      C1790   1.388       .  A
C1785      F1792   1.358       .  S
C1786      C1787   1.402       .  A
C1787      C1788   1.392       .  A
C1787      F1794   1.358       .  S
C1788      C1789   1.403       .  A
C1788      F1793   1.357       .  S
C1789      C1790   1.402       .  A
C1790      F1791   1.357       .  S
C1795      C1796   1.411       .  A
C1795      C1800   1.405       .  A
C1795      F1802   1.356       .  S
C1796      C1797   1.413       .  A
C1797      C1798   1.416       .  A
C1797      F1804   1.357       .  S
C1798      C1799   1.418       .  A
C1798      F1803   1.357       .  S
C1799      C1800   1.413       .  A
C1800      F1801   1.352       .  S
C1805      C1806   1.408       .  A
C1805      C1810   1.413       .  A
C1805      F1812   1.356       .  S
C1806      C1807   1.406       .  A
C1807      C1808   1.398       .  A
C1807      F1814   1.358       .  S
C1808      C1809   1.409       .  A
C1808      F1813   1.358       .  S
C1809      C1810   1.408       .  A
C1810      F1811   1.357       .  S
C1815      C1816   1.405       .  A
C1815      C1820   1.391       .  A
C1815      F1822   1.358       .  S
C1816      C1817   1.406       .  A
C1817      C1818   1.386       .  A
C1817      F1824   1.352       .  S
C1818      C1819   1.406       .  A
C1818      F1823   1.359       .  S
C1819      C1820   1.405       .  A
C1820      F1821   1.358       .  S
C1825      C1826   1.400       .  A
C1825      C1830   1.388       .  A
C1825      F1832   1.358       .  S
C1826      C1827   1.395       .  A
C1827      C1828   1.382       .  A
C1827      F1834   1.358       .  S
C1828      C1829   1.399       .  A
C1828      F1833   1.358       .  S
C1829      C1830   1.397       .  A
C1830      F1831   1.358       .  S
C1835      C1836   1.405       .  A
C1835      C1840   1.403       .  A
C1835      F1842   1.357       .  S
C1836      C1837   1.403       .  A
C1837      C1838   1.392       .  A
C1837      F1844   1.359       .  S
C1838      C1839   1.408       .  A
C1838      F1843   1.357       .  S
C1839      C1840   1.409       .  A
C1840      F1841   1.357       .  S
C1845      C1846   1.400       .  A
C1845      C1850   1.389       .  A
C1845      F1852   1.358       .  S
C1846      C1847   1.400       .  A
C1847      C1848   1.395       .  A
C1847      F1854   1.358       .  S
C1848      C1849   1.408       .  A
C1848      F1853   1.358       .  S
C1849      C1850   1.407       .  A
C1850      F1851   1.359       .  S
C1855      C1856   1.408       .  A
C1855      C1860   1.416       .  A
C1855      F1862   1.358       .  S
C1856      C1857   1.404       .  A
C1857      C1858   1.413       .  A
C1857      F1864   1.358       .  S
C1858      C1859   1.425       .  A
C1858      F1863   1.354       .  S
C1859      C1860   1.421       .  A
C1860      F1861   1.355       .  S
C1865      C1866   1.403       .  A
C1865      C1870   1.397       .  A
C1865      F1872   1.358       .  S
C1866      C1867   1.401       .  A
C1867      C1868   1.397       .  A
C1867      F1874   1.358       .  S
C1868      C1869   1.403       .  A
C1868      F1873   1.356       .  S
C1869      C1870   1.402       .  A
C1870      F1871   1.358       .  S
C1875      C1876   1.412       .  A
C1875      C1880   1.385       .  A
C1875      F1882   1.359       .  S
C1876      C1877   1.405       .  A
C1877      C1878   1.390       .  A
C1877      F1884   1.358       .  S
C1878      C1879   1.402       .  A
C1878      F1883   1.354       .  S
C1879      C1880   1.395       .  A
C1880      F1881   1.358       .  S
C1885      C1886   1.395       .  A
C1885      C1890   1.387       .  A
C1885      F1892   1.358       .  S
C1886      C1887   1.400       .  A
C1887      C1888   1.390       .  A
C1887      F1894   1.358       .  S
C1888      C1889   1.404       .  A
C1888      F1893   1.358       .  S
C1889      C1890   1.411       .  A
C1890      F1891   1.359       .  S
C1895      C1896   1.398       .  A
C1895      C1900   1.390       .  A
C1895      F1902   1.358       .  S
C1896      C1897   1.396       .  A
C1897      C1898   1.391       .  A
C1897      F1904   1.358       .  S
C1898      C1899   1.409       .  A
C1898      F1903   1.358       .  S
C1899      C1900   1.407       .  A
C1900      F1901   1.358       .  S
C1905      C1906   1.401       .  A
C1905      C1910   1.396       .  A
C1905      F1912   1.358       .  S
C1906      C1907   1.399       .  A
C1907      C1908   1.392       .  A
C1907      F1914   1.357       .  S
C1908      C1909   1.410       .  A
C1908      F1913   1.358       .  S
C1909      C1910   1.407       .  A
C1910      F1911   1.358       .  S
C1915      C1916   1.414       .  A
C1915      C1920   1.386       .  A
C1915      F1922   1.358       .  S
C1916      C1917   1.408       .  A
C1917      C1918   1.389       .  A
C1917      F1924   1.358       .  S
C1918      C1919   1.398       .  A
C1918      F1923   1.359       .  S
C1919      C1920   1.392       .  A
C1920      F1921   1.358       .  S
C1925      C1926   1.413       .  A
C1925      C1930   1.376       .  A
C1925      F1932   1.360       .  S
C1926      C1927   1.405       .  A
C1927      C1928   1.392       .  A
C1927      F1934   1.357       .  S
C1928      C1929   1.401       .  A
C1928      F1933   1.356       .  S
C1929      C1930   1.393       .  A
C1930      F1931   1.359       .  S
C1935      C1936   1.416       .  A
C1935      C1940   1.409       .  A
C1935      F1942   1.357       .  S
C1936      C1937   1.414       .  A
C1937      C1938   1.420       .  A
C1937      F1944   1.357       .  S
C1938      C1939   1.412       .  A
C1938      F1943   1.357       .  S
C1939      C1940   1.404       .  A
C1940      F1941   1.356       .  S
C1945      C1946   1.398       .  A
C1945      C1950   1.391       .  A
C1945      F1952   1.358       .  S
C1946      C1947   1.396       .  A
C1947      C1948   1.387       .  A
C1947      F1954   1.358       .  S
C1948      C1949   1.405       .  A
C1948      F1953   1.358       .  S
C1949      C1950   1.405       .  A
C1950      F1951   1.358       .  S
C1955      C1956   1.401       .  A
C1955      C1960   1.395       .  A
C1955      F1962   1.358       .  S
C1956      C1957   1.403       .  A
C1957      C1958   1.396       .  A
C1957      F1964   1.358       .  S
C1958      C1959   1.402       .  A
C1958      F1963   1.358       .  S
C1959      C1960   1.405       .  A
C1960      F1961   1.358       .  S
C1965      C1966   1.405       .  A
C1965      C1970   1.402       .  A
C1965      F1972   1.357       .  S
C1966      C1967   1.403       .  A
C1967      C1968   1.398       .  A
C1967      F1974   1.357       .  S
C1968      C1969   1.403       .  A
C1968      F1973   1.358       .  S
C1969      C1970   1.404       .  A
C1970      F1971   1.358       .  S
C1975      C1976   1.409       .  A
C1975      C1980   1.405       .  A
C1975      F1982   1.358       .  S
C1976      C1977   1.407       .  A
C1977      C1978   1.408       .  A
C1977      F1984   1.357       .  S
C1978      C1979   1.409       .  A
C1978      F1983   1.357       .  S
C1979      C1980   1.406       .  A
C1980      F1981   1.356       .  S
C1985      C1986   1.404       .  A
C1985      C1990   1.402       .  A
C1985      F1992   1.358       .  S
C1986      C1987   1.408       .  A
C1987      C1988   1.403       .  A
C1987      F1994   1.358       .  S
C1988      C1989   1.405       .  A
C1988      F1993   1.356       .  S
C1989      C1990   1.407       .  A
C1990      F1991   1.357       .  S
C1995      C1996   1.406       .  A
C1995      C2000   1.395       .  A
C1995      F2002   1.357       .  S
C1996      C1997   1.406       .  A
C1997      C1998   1.406       .  A
C1997      F2004   1.357       .  S
C1998      C1999   1.406       .  A
C1998      F2003   1.357       .  S
C1999      C2000   1.403       .  A
C2000      F2001   1.357       .  S
C2005      C2006   1.403       .  A
C2005      C2010   1.394       .  A
C2005      F2012   1.357       .  S
C2006      C2007   1.407       .  A
C2007      C2008   1.397       .  A
C2007      F2014   1.358       .  S
C2008      C2009   1.402       .  A
C2008      F2013   1.358       .  S
C2009      C2010   1.405       .  A
C2010      F2011   1.358       .  S
C2015      C2016   1.403       .  A
C2015      C2020   1.388       .  A
C2015      F2022   1.358       .  S
C2016      C2017   1.405       .  A
C2017      C2018   1.373       .  A
C2017      F2024   1.357       .  S
C2018      C2019   1.390       .  A
C2018      F2023   1.358       .  S
C2019      C2020   1.399       .  A
C2020      F2021   1.358       .  S
C2025      C2026   1.399       .  A
C2025      C2030   1.396       .  A
C2025      F2032   1.357       .  S
C2026      C2027   1.396       .  A
C2027      C2028   1.393       .  A
C2027      F2034   1.358       .  S
C2028      C2029   1.414       .  A
C2028      F2033   1.358       .  S
C2029      C2030   1.411       .  A
C2030      F2031   1.358       .  S
C2035      C2036   1.410       .  A
C2035      C2040   1.408       .  A
C2035      F2042   1.357       .  S
C2036      C2037   1.408       .  A
C2037      C2038   1.415       .  A
C2037      F2044   1.357       .  S
C2038      C2039   1.416       .  A
C2038      F2043   1.356       .  S
C2039      C2040   1.416       .  A
C2040      F2041   1.356       .  S
C2045      C2046   1.394       .  A
C2045      C2050   1.381       .  A
C2045      F2052   1.358       .  S
C2046      C2047   1.394       .  A
C2047      C2048   1.370       .  A
C2047      F2054   1.357       .  S
C2048      C2049   1.406       .  A
C2048      F2053   1.359       .  S
C2049      C2050   1.407       .  A
C2050      F2051   1.359       .  S
C2055      C2056   1.406       .  A
C2055      C2060   1.387       .  A
C2055      F2062   1.355       .  S
C2056      C2057   1.398       .  A
C2057      C2058   1.393       .  A
C2057      F2064   1.358       .  S
C2058      C2059   1.404       .  A
C2058      F2063   1.358       .  S
C2059      C2060   1.393       .  A
C2060      F2061   1.358       .  S
C2065      C2066   1.403       .  A
C2065      C2070   1.389       .  A
C2065      F2072   1.358       .  S
C2066      C2067   1.396       .  A
C2067      C2068   1.385       .  A
C2067      F2074   1.359       .  S
C2068      C2069   1.403       .  A
C2068      F2073   1.355       .  S
C2069      C2070   1.396       .  A
C2070      F2071   1.358       .  S
C2075      C2076   1.401       .  A
C2075      C2080   1.386       .  A
C2075      F2082   1.359       .  S
C2076      C2077   1.399       .  A
C2077      C2078   1.387       .  A
C2077      F2084   1.358       .  S
C2078      C2079   1.401       .  A
C2078      F2083   1.357       .  S
C2079      C2080   1.399       .  A
C2080      F2081   1.358       .  S
C2085      C2086   1.415       .  A
C2085      C2090   1.423       .  A
C2085      F2092   1.357       .  S
C2086      C2087   1.403       .  A
C2087      C2088   1.412       .  A
C2087      F2094   1.358       .  S
C2088      C2089   1.427       .  A
C2088      F2093   1.357   1_655  S
C2089      C2090   1.417       .  A
C2090      F2091   1.355       .  S
C2095      C2096   1.415       .  A
C2095      C2100   1.386       .  A
C2095      F2102   1.359       .  S
C2096      C2097   1.405       .  A
C2097      C2098   1.396       .  A
C2097      F2104   1.357       .  S
C2098      C2099   1.403       .  A
C2098      F2103   1.357       .  S
C2099      C2100   1.395       .  A
C2100      F2101   1.358       .  S
C2105      C2106   1.409       .  A
C2105      C2110   1.388       .  A
C2105      F2112   1.358       .  S
C2106      C2107   1.407       .  A
C2107      C2108   1.389       .  A
C2107      F2114   1.358       .  S
C2108      C2109   1.400       .  A
C2108      F2113   1.357       .  S
C2109      C2110   1.398       .  A
C2110      F2111   1.358       .  S
C2115      C2116   1.411       .  A
C2115      C2120   1.412       .  A
C2115      F2122   1.357       .  S
C2116      C2117   1.414       .  A
C2117      C2118   1.401       .  A
C2117      F2124   1.358       .  S
C2118      C2119   1.401       .  A
C2118      F2123   1.358       .  S
C2119      C2120   1.409       .  A
C2120      F2121   1.357       .  S
C2125      C2126   1.402       .  A
C2125      C2130   1.392       .  A
C2125      F2132   1.358       .  S
C2126      C2127   1.405       .  A
C2127      C2128   1.402       .  A
C2127      F2134   1.358       .  S
C2128      C2129   1.406       .  A
C2128      F2133   1.357       .  S
C2129      C2130   1.405       .  A
C2130      F2131   1.356       .  S
C2135      C2136   1.402       .  A
C2135      C2140   1.394       .  A
C2135      F2142   1.358       .  S
C2136      C2137   1.400       .  A
C2137      C2138   1.393       .  A
C2137      F2144   1.358       .  S
C2138      C2139   1.402       .  A
C2138      F2143   1.357       .  S
C2139      C2140   1.401       .  A
C2140      F2141   1.357       .  S
C2145      C2146   1.408       .  A
C2145      C2150   1.402       .  A
C2145      F2152   1.358       .  S
C2146      C2147   1.404       .  A
C2147      C2148   1.401       .  A
C2147      F2154   1.357       .  S
C2148      C2149   1.405       .  A
C2148      F2153   1.357       .  S
C2149      C2150   1.405       .  A
C2150      F2151   1.357       .  S
C2155      C2156   1.402       .  A
C2155      C2160   1.396       .  A
C2155      F2162   1.357       .  S
C2156      C2157   1.398       .  A
C2157      C2158   1.385       .  A
C2157      F2164   1.359       .  S
C2158      C2159   1.402       .  A
C2158      F2163   1.359       .  S
C2159      C2160   1.400       .  A
C2160      F2161   1.357       .  S
C2165      C2166   1.404       .  A
C2165      C2170   1.413       .  A
C2165      F2172   1.357       .  S
C2166      C2167   1.410       .  A
C2167      C2168   1.419       .  A
C2167      F2174   1.356       .  S
C2168      C2169   1.418       .  A
C2168      F2173   1.356       .  S
C2169      C2170   1.422       .  A
C2170      F2171   1.356       .  S
C2175      C2176   1.430       .  A
C2175      C2180   1.418       .  A
C2175      F2182   1.356       .  S
C2176      C2177   1.419       .  A
C2177      C2178   1.415       .  A
C2177      F2184   1.353       .  S
C2178      C2179   1.412       .  A
C2178      F2183   1.358       .  S
C2179      C2180   1.403       .  A
C2180      F2181   1.357       .  S
C2185      C2186   1.426       .  A
C2185      C2190   1.404       .  A
C2185      F2192   1.358       .  S
C2186      C2187   1.403       .  A
C2187      C2188   1.402       .  A
C2187      F2194   1.355       .  S
C2188      C2189   1.417       .  A
C2188      F2193   1.356       .  S
C2189      C2190   1.399       .  A
C2190      F2191   1.356       .  S
C2195      C2196   1.421   1_545  A
C2195      C2200   1.410       .  A
C2195      F2202   1.356       .  S
C2196      C2197   1.418       .  A
C2197      C2198   1.416       .  A
C2197      F2204   1.356       .  S
C2198      C2199   1.408   1_565  A
C2198      F2203   1.357       .  S
C2199      C2200   1.403       .  A
C2200      F2201   1.357       .  S
C2205      C2206   1.425       .  A
C2205      C2210   1.404       .  A
C2205      F2212   1.355       .  S
C2206      C2207   1.418       .  A
C2207      C2208   1.405       .  A
C2207      F2214   1.354       .  S
C2208      C2209   1.405       .  A
C2208      F2213   1.358       .  S
C2209      C2210   1.398       .  A
C2210      F2211   1.358       .  S
C2215      C2216   1.413       .  A
C2215      C2220   1.394       .  A
C2215      F2222   1.357       .  S
C2216      C2217   1.408       .  A
C2217      C2218   1.398       .  A
C2217      F2224   1.357       .  S
C2218      C2219   1.404       .  A
C2218      F2223   1.358       .  S
C2219      C2220   1.397       .  A
C2220      F2221   1.356       .  S
C2225      C2226   1.413       .  A
C2225      C2230   1.408       .  A
C2225      F2232   1.356       .  S
C2226      C2227   1.418       .  A
C2227      C2228   1.411       .  A
C2227      F2234   1.356       .  S
C2228      C2229   1.404       .  A
C2228      F2233   1.357       .  S
C2229      C2230   1.407       .  A
C2230      F2231   1.355   1_545  S
C2235      C2236   1.420       .  A
C2235      C2240   1.437       .  A
C2235      F2242   1.357       .  S
C2236      C2237   1.419       .  A
C2237      C2238   1.438       .  A
C2237      F2244   1.357       .  S
C2238      C2239   1.429       .  A
C2238      F2243   1.355       .  S
C2239      C2240   1.426       .  A
C2240      F2241   1.357       .  S
C2245      C2246   1.397       .  A
C2245      C2250   1.383       .  A
C2245      F2252   1.357   1_556  S
C2246      C2247   1.403       .  A
C2247      C2248   1.402       .  A
C2247      F2254   1.357       .  S
C2248      C2249   1.407       .  A
C2248      F2253   1.357       .  S
C2249      C2250   1.410       .  A
C2250      F2251   1.357       .  S
C2255      C2256   1.414       .  A
C2255      C2260   1.404       .  A
C2255      F2262   1.357       .  S
C2256      C2257   1.413       .  A
C2257      C2258   1.406       .  A
C2257      F2264   1.357       .  S
C2258      C2259   1.404       .  A
C2258      F2263   1.356       .  S
C2259      C2260   1.402       .  A
C2260      F2261   1.357       .  S
C2265      C2266   1.418       .  A
C2265      C2270   1.403       .  A
C2265      F2272   1.356       .  S
C2266      C2267   1.421       .  A
C2267      C2268   1.409       .  A
C2267      F2274   1.356       .  S
C2268      C2269   1.401       .  A
C2268      F2273   1.357       .  S
C2269      C2270   1.403       .  A
C2270      F2271   1.358       .  S
C2275      C2276   1.403       .  A
C2275      C2280   1.399       .  A
C2275      F2282   1.357       .  S
C2276      C2277   1.402       .  A
C2277      C2278   1.402       .  A
C2277      F2284   1.357       .  S
C2278      C2279   1.407       .  A
C2278      F2283   1.357       .  S
C2279      C2280   1.407       .  A
C2280      F2281   1.358       .  S
C2285      C2286   1.402       .  A
C2285      C2290   1.395       .  A
C2285      F2292   1.356       .  S
C2286      C2287   1.398       .  A
C2287      C2288   1.392       .  A
C2287      F2294   1.357       .  S
C2288      C2289   1.412       .  A
C2288      F2293   1.358       .  S
C2289      C2290   1.409       .  A
C2290      F2291   1.358       .  S
C2295      C2296   1.399       .  A
C2295      C2300   1.385       .  A
C2295      F2302   1.358       .  S
C2296      C2297   1.411       .  A
C2297      C2298   1.383       .  A
C2297      F2304   1.359       .  S
C2298      C2299   1.391       .  A
C2298      F2303   1.358       .  S
C2299      C2300   1.403       .  A
C2300      F2301   1.357       .  S
C2305      C2306   1.401       .  A
C2305      C2310   1.399       .  A
C2305      F2312   1.357       .  S
C2306      C2307   1.410       .  A
C2307      C2308   1.401       .  A
C2307      F2314   1.357       .  S
C2308      C2309   1.401       .  A
C2308      F2313   1.357       .  S
C2309      C2310   1.408       .  A
C2310      F2311   1.358       .  S
C2315      C2316   1.408       .  A
C2315      C2320   1.399       .  A
C2315      F2322   1.353       .  S
C2316      C2317   1.399       .  A
C2317      C2318   1.396       .  A
C2317      F2324   1.358       .  S
C2318      C2319   1.412       .  A
C2318      F2323   1.357       .  S
C2319      C2320   1.405       .  A
C2320      F2321   1.357       .  S
C2325      C2326   1.406       .  A
C2325      C2330   1.391       .  A
C2325      F2332   1.358       .  S
C2326      C2327   1.398       .  A
C2327      C2328   1.397       .  A
C2327      F2334   1.358       .  S
C2328      C2329   1.416       .  A
C2328      F2333   1.358       .  S
C2329      C2330   1.401       .  A
C2330      F2331   1.357       .  S
C2335      C2336   1.401       .  A
C2335      C2340   1.376       .  A
C2335      F2342   1.357       .  S
C2336      C2337   1.397       .  A
C2337      C2338   1.390       .  A
C2337      F2344   1.358       .  S
C2338      C2339   1.408       .  A
C2338      F2343   1.358       .  S
C2339      C2340   1.402       .  A
C2340      F2341   1.359       .  S
C2345      C2346   1.402       .  A
C2345      C2350   1.400       .  A
C2345      F2352   1.357       .  S
C2346      C2347   1.403       .  A
C2347      C2348   1.393       .  A
C2347      F2354   1.356       .  S
C2348      C2349   1.406       .  A
C2348      F2353   1.358       .  S
C2349      C2350   1.408       .  A
C2350      F2351   1.358       .  S
C2355      C2356   1.404       .  A
C2355      C2360   1.402       .  A
C2355      F2362   1.358       .  S
C2356      C2357   1.401       .  A
C2357      C2358   1.406       .  A
C2357      F2364   1.358       .  S
C2358      C2359   1.424       .  A
C2358      F2363   1.356       .  S
C2359      C2360   1.416       .  A
C2360      F2361   1.354       .  S
C2365      C2366   1.408       .  A
C2365      C2370   1.402       .  A
C2365      F2372   1.358       .  S
C2366      C2367   1.396       .  A
C2367      C2368   1.398       .  A
C2367      F2374   1.358       .  S
C2368      C2369   1.422       .  A
C2368      F2373   1.356       .  S
C2369      C2370   1.411       .  A
C2370      F2371   1.356       .  S
C2375      C2376   1.404       .  A
C2375      C2380   1.386       .  A
C2375      F2382   1.353       .  S
C2376      C2377   1.410       .  A
C2377      C2378   1.399       .  A
C2377      F2384   1.357       .  S
C2378      C2379   1.405       .  A
C2378      F2383   1.358       .  S
C2379      C2380   1.404       .  A
C2380      F2381   1.358       .  S
C2385      C2386   1.407       .  A
C2385      C2390   1.388       .  A
C2385      F2392   1.356       .  S
C2386      C2387   1.397       .  A
C2387      C2388   1.392       .  A
C2387      F2394   1.357       .  S
C2388      C2389   1.403       .  A
C2388      F2393   1.358       .  S
C2389      C2390   1.396       .  A
C2390      F2391   1.358       .  S
C2395      C2396   1.394       .  A
C2395      C2400   1.386       .  A
C2395      F2402   1.358       .  S
C2396      C2397   1.403       .  A
C2397      C2398   1.380       .  A
C2397      F2404   1.355       .  S
C2398      C2399   1.397       .  A
C2398      F2403   1.359       .  S
C2399      C2400   1.407       .  A
C2400      F2401   1.358       .  S
C2405      C2406   1.405       .  A
C2405      C2410   1.399       .  A
C2405      F2412   1.358       .  S
C2406      C2407   1.408       .  A
C2407      C2408   1.389       .  A
C2407      F2414   1.352       .  S
C2408      C2409   1.396       .  A
C2408      F2413   1.358       .  S
C2409      C2410   1.401       .  A
C2410      F2411   1.357       .  S
C2415      C2416   1.400       .  A
C2415      C2420   1.397       .  A
C2415      F2422   1.358       .  S
C2416      C2417   1.399       .  A
C2417      C2418   1.397       .  A
C2417      F2424   1.358       .  S
C2418      C2419   1.422       .  A
C2418      F2423   1.355       .  S
C2419      C2420   1.417       .  A
C2420      F2421   1.355       .  S
C2425      C2426   1.410       .  A
C2425      C2430   1.389       .  A
C2425      F2432   1.359   1_545  S
C2426      C2427   1.399       .  A
C2427      C2428   1.379       .  A
C2427      F2434   1.356       .  S
C2428      C2429   1.403       .  A
C2428      F2433   1.351       .  S
C2429      C2430   1.399       .  A
C2430      F2431   1.358       .  S
C2435      C2436   1.404       .  A
C2435      C2440   1.387       .  A
C2435      F2442   1.358       .  S
C2436      C2437   1.397       .  A
C2437      C2438   1.390       .  A
C2437      F2444   1.358       .  S
C2438      C2439   1.405       .  A
C2438      F2443   1.358       .  S
C2439      C2440   1.396       .  A
C2440      F2441   1.358       .  S
C2445      C2446   1.412       .  A
C2445      C2450   1.396       .  A
C2445      F2452   1.358       .  S
C2446      C2447   1.410       .  A
C2447      C2448   1.394       .  A
C2447      F2454   1.358       .  S
C2448      C2449   1.401       .  A
C2448      F2453   1.356       .  S
C2449      C2450   1.400       .  A
C2450      F2451   1.357       .  S
C2455      C2456   1.415       .  A
C2455      C2460   1.428       .  A
C2455      F2462   1.357       .  S
C2456      C2457   1.415       .  A
C2457      C2458   1.433       .  A
C2457      F2464   1.357       .  S
C2458      C2459   1.430       .  A
C2458      F2463   1.354       .  S
C2459      C2460   1.425       .  A
C2460      F2461   1.352       .  S
C2465      C2466   1.433       .  A
C2465      C2470   1.436       .  A
C2465      F2472   1.352       .  S
C2466      C2467   1.415       .  A
C2467      C2468   1.427       .  A
C2467      F2474   1.351       .  S
C2468      C2469   1.427       .  A
C2468      F2473   1.346       .  S
C2469      C2470   1.420       .  A
C2470      F2471   1.357       .  S
C2475      C2476   1.409       .  A
C2475      C2480   1.400       .  A
C2475      F2482   1.358       .  S
C2476      C2477   1.400       .  A
C2477      C2478   1.399       .  A
C2477      F2484   1.357       .  S
C2478      C2479   1.411       .  A
C2478      F2483   1.358       .  S
C2479      C2480   1.401       .  A
C2480      F2481   1.358       .  S
C2485      C2486   1.415       .  A
C2485      C2490   1.407       .  A
C2485      F2492   1.356       .  S
C2486      C2487   1.417       .  A
C2487      C2488   1.411       .  A
C2487      F2494   1.356       .  S
C2488      C2489   1.406       .  A
C2488      F2493   1.357       .  S
C2489      C2490   1.405       .  A
C2490      F2491   1.356       .  S
C2495      C2496   1.424       .  A
C2495      C2500   1.407       .  A
C2495      F2502   1.355       .  S
C2496      C2497   1.420       .  A
C2497      C2498   1.407       .  A
C2497      F2504   1.355       .  S
C2498      C2499   1.404       .  A
C2498      F2503   1.357       .  S
C2499      C2500   1.399       .  A
C2500      F2501   1.358       .  S
C2505      C2506   1.400       .  A
C2505      C2510   1.397       .  A
C2505      F2512   1.357       .  S
C2506      C2507   1.403       .  A
C2507      C2508   1.394       .  A
C2507      F2514   1.358       .  S
C2508      C2509   1.405       .  A
C2508      F2513   1.358       .  S
C2509      C2510   1.404       .  A
C2510      F2511   1.357       .  S
C2515      C2516   1.421       .  A
C2515      C2520   1.412       .  A
C2515      F2522   1.355       .  S
C2516      C2517   1.417       .  A
C2517      C2518   1.413       .  A
C2517      F2524   1.356       .  S
C2518      C2519   1.407       .  A
C2518      F2523   1.356       .  S
C2519      C2520   1.404       .  A
C2520      F2521   1.357       .  S
C2525      C2526   1.401       .  A
C2525      C2530   1.381       .  A
C2525      F2532   1.358       .  S
C2526      C2527   1.399       .  A
C2527      C2528   1.397       .  A
C2527      F2534   1.357       .  S
C2528      C2529   1.406       .  A
C2528      F2533   1.357   1_655  S
C2529      C2530   1.400       .  A
C2530      F2531   1.357       .  S
C2535      C2536   1.430       .  A
C2535      C2540   1.435       .  A
C2535      F2542   1.355   1_554  S
C2536      C2537   1.426       .  A
C2537      C2538   1.439       .  A
C2537      F2544   1.356       .  S
C2538      C2539   1.422       .  A
C2538      F2543   1.357       .  S
C2539      C2540   1.418       .  A
C2540      F2541   1.357       .  S
C2545      C2546   1.407       .  A
C2545      C2550   1.398       .  A
C2545      F2552   1.357       .  S
C2546      C2547   1.407       .  A
C2547      C2548   1.403       .  A
C2547      F2554   1.357       .  S
C2548      C2549   1.404       .  A
C2548      F2553   1.357       .  S
C2549      C2550   1.403       .  A
C2550      F2551   1.357       .  S
C2555      C2556   1.407   1_655  A
C2555      C2560   1.408       .  A
C2555      F2562   1.358       .  S
C2556      C2557   1.402       .  A
C2557      C2558   1.404   1_455  A
C2557      F2564   1.358       .  S
C2558      C2559   1.420       .  A
C2558      F2563   1.356       .  S
C2559      C2560   1.413       .  A
C2560      F2561   1.356       .  S
C2565      C2566   1.417       .  A
C2565      C2570   1.398       .  A
C2565      F2572   1.356       .  S
C2566      C2567   1.416       .  A
C2567      C2568   1.394       .  A
C2567      F2574   1.357       .  S
C2568      C2569   1.398       .  A
C2568      F2573   1.358       .  S
C2569      C2570   1.397       .  A
C2570      F2571   1.358       .  S
C2575      C2576   1.419       .  A
C2575      C2580   1.404       .  A
C2575      F2582   1.355       .  S
C2576      C2577   1.418       .  A
C2577      C2578   1.400       .  A
C2577      F2584   1.356       .  S
C2578      C2579   1.401       .  A
C2578      F2583   1.358       .  S
C2579      C2580   1.402       .  A
C2580      F2581   1.357       .  S
C2585      C2586   1.426       .  A
C2585      C2590   1.431       .  A
C2585      F2592   1.354       .  S
C2586      C2587   1.427       .  A
C2587      C2588   1.427       .  A
C2587      F2594   1.357       .  S
C2588      C2589   1.413       .  A
C2588      F2593   1.357       .  S
C2589      C2590   1.415       .  A
C2590      F2591   1.357       .  S
C2595      C2596   1.408       .  A
C2595      C2600   1.397       .  A
C2595      F2602   1.357       .  S
C2596      C2597   1.403       .  A
C2597      C2598   1.405       .  A
C2597      F2604   1.357       .  S
C2598      C2599   1.408       .  A
C2598      F2603   1.358       .  S
C2599      C2600   1.401       .  A
C2600      F2601   1.358       .  S
C2605      C2606   1.403       .  A
C2605      C2610   1.390       .  A
C2605      F2612   1.357       .  S
C2606      C2607   1.399       .  A
C2607      C2608   1.393       .  A
C2607      F2614   1.357       .  S
C2608      C2609   1.404       .  A
C2608      F2613   1.358       .  S
C2609      C2610   1.398       .  A
C2610      F2611   1.358       .  S
C2615      C2616   1.396       .  A
C2615      C2620   1.387       .  A
C2615      F2622   1.358       .  S
C2616      C2617   1.400       .  A
C2617      C2618   1.396       .  A
C2617      F2624   1.358       .  S
C2618      C2619   1.412       .  A
C2618      F2623   1.358       .  S
C2619      C2620   1.411       .  A
C2620      F2621   1.358       .  S
C2625      C2626   1.404       .  A
C2625      C2630   1.402       .  A
C2625      F2632   1.358       .  S
C2626      C2627   1.406       .  A
C2627      C2628   1.401       .  A
C2627      F2634   1.356       .  S
C2628      C2629   1.404       .  A
C2628      F2633   1.357       .  S
C2629      C2630   1.405       .  A
C2630      F2631   1.357       .  S
C2635      C2636   1.403       .  A
C2635      C2640   1.391       .  A
C2635      F2642   1.356       .  S
C2636      C2637   1.407       .  A
C2637      C2638   1.396       .  A
C2637      F2644   1.351       .  S
C2638      C2639   1.406       .  A
C2638      F2643   1.358       .  S
C2639      C2640   1.408       .  A
C2640      F2641   1.354       .  S
C2645      C2646   1.402       .  A
C2645      C2650   1.397       .  A
C2645      F2652   1.358       .  S
C2646      C2647   1.397       .  A
C2647      C2648   1.379       .  A
C2647      F2654   1.357       .  S
C2648      C2649   1.403       .  A
C2648      F2653   1.359       .  S
C2649      C2650   1.407       .  A
C2650      F2651   1.358   1_556  S
C2655      C2656   1.402       .  A
C2655      C2660   1.394       .  A
C2655      F2662   1.357       .  S
C2656      C2657   1.399       .  A
C2657      C2658   1.397       .  A
C2657      F2664   1.356       .  S
C2658      C2659   1.414       .  A
C2658      F2663   1.358       .  S
C2659      C2660   1.409       .  A
C2660      F2661   1.358       .  S
C2665      C2666   1.411       .  A
C2665      C2670   1.404       .  A
C2665      F2672   1.357       .  S
C2666      C2667   1.408       .  A
C2667      C2668   1.402       .  A
C2667      F2674   1.356       .  S
C2668      C2669   1.407       .  A
C2668      F2673   1.358       .  S
C2669      C2670   1.404       .  A
C2670      F2671   1.358       .  S
C2675      C2676   1.415       .  A
C2675      C2680   1.433       .  A
C2675      F2682   1.355       .  S
C2676      C2677   1.420       .  A
C2677      C2678   1.437       .  A
C2677      F2684   1.357       .  S
C2678      C2679   1.427       .  A
C2678      F2683   1.355       .  S
C2679      C2680   1.430       .  A
C2680      F2681   1.355       .  S
C2685      C2686   1.414       .  A
C2685      C2690   1.429       .  A
C2685      F2692   1.356       .  S
C2686      C2687   1.414       .  A
C2687      C2688   1.429       .  A
C2687      F2694   1.357       .  S
C2688      C2689   1.428       .  A
C2688      F2693   1.354       .  S
C2689      C2690   1.431       .  A
C2690      F2691   1.355       .  S
C2695      C2696   1.401       .  A
C2695      C2700   1.392       .  A
C2695      F2702   1.358       .  S
C2696      C2697   1.403       .  A
C2697      C2698   1.395       .  A
C2697      F2704   1.356       .  S
C2698      C2699   1.405       .  A
C2698      F2703   1.358       .  S
C2699      C2700   1.406       .  A
C2700      F2701   1.355       .  S
C2705      C2706   1.396       .  A
C2705      C2710   1.390       .  A
C2705      F2712   1.358       .  S
C2706      C2707   1.407       .  A
C2707      C2708   1.392       .  A
C2707      F2714   1.356       .  S
C2708      C2709   1.405       .  A
C2708      F2713   1.358       .  S
C2709      C2710   1.413       .  A
C2710      F2711   1.358       .  S
C2715      C2716   1.402       .  A
C2715      C2720   1.382       .  A
C2715      F2722   1.355       .  S
C2716      C2717   1.392       .  A
C2717      C2718   1.387       .  A
C2717      F2724   1.357       .  S
C2718      C2719   1.409       .  A
C2718      F2723   1.358       .  S
C2719      C2720   1.400       .  A
C2720      F2721   1.359       .  S
C2725      C2726   1.409       .  A
C2725      C2730   1.398       .  A
C2725      F2732   1.357       .  S
C2726      C2727   1.402       .  A
C2727      C2728   1.391       .  A
C2727      F2734   1.358       .  S
C2728      C2729   1.405       .  A
C2728      F2733   1.359       .  S
C2729      C2730   1.403       .  A
C2730      F2731   1.356       .  S
C2735      C2736   1.410       .  A
C2735      C2740   1.397       .  A
C2735      F2742   1.351       .  S
C2736      C2737   1.398       .  A
C2737      C2738   1.395       .  A
C2737      F2744   1.358       .  S
C2738      C2739   1.413       .  A
C2738      F2743   1.357       .  S
C2739      C2740   1.402       .  A
C2740      F2741   1.357       .  S
C2745      C2746   1.392       .  A
C2745      C2750   1.392       .  A
C2745      F2752   1.358       .  S
C2746      C2747   1.406       .  A
C2747      C2748   1.386       .  A
C2747      F2754   1.356       .  S
C2748      C2749   1.395       .  A
C2748      F2753   1.358       .  S
C2749      C2750   1.414       .  A
C2750      F2751   1.356       .  S
C2755      C2756   1.402       .  A
C2755      C2760   1.389       .  A
C2755      F2762   1.357       .  S
C2756      C2757   1.398       .  A
C2757      C2758   1.389       .  A
C2757      F2764   1.356       .  S
C2758      C2759   1.405       .  A
C2758      F2763   1.358       .  S
C2759      C2760   1.403       .  A
C2760      F2761   1.358       .  S
C2765      C2766   1.404       .  A
C2765      C2770   1.398       .  A
C2765      F2772   1.358       .  S
C2766      C2767   1.405       .  A
C2767      C2768   1.388       .  A
C2767      F2774   1.357       .  S
C2768      C2769   1.399       .  A
C2768      F2773   1.358       .  S
C2769      C2770   1.404       .  A
C2770      F2771   1.358       .  S
C2775      C2776   1.401       .  A
C2775      C2780   1.410       .  A
C2775      F2782   1.357       .  S
C2776      C2777   1.407       .  A
C2777      C2778   1.406       .  A
C2777      F2784   1.359       .  S
C2778      C2779   1.417       .  A
C2778      F2783   1.353       .  S
C2779      C2780   1.423       .  A
C2780      F2781   1.357       .  S
C2785      C2786   1.403       .  A
C2785      C2790   1.409       .  A
C2785      F2792   1.358       .  S
C2786      C2787   1.405       .  A
C2787      C2788   1.410       .  A
C2787      F2794   1.357       .  S
C2788      C2789   1.419       .  A
C2788      F2793   1.356       .  S
C2789      C2790   1.420       .  A
C2790      F2791   1.355       .  S
C2795      C2796   1.394       .  A
C2795      C2800   1.390       .  A
C2795      F2802   1.358       .  S
C2796      C2797   1.408       .  A
C2797      C2798   1.395       .  A
C2797      F2804   1.358       .  S
C2798      C2799   1.399       .  A
C2798      F2803   1.358       .  S
C2799      C2800   1.410       .  A
C2800      F2801   1.358       .  S
C2805      C2806   1.413       .  A
C2805      C2810   1.400       .  A
C2805      F2812   1.357       .  S
C2806      C2807   1.408       .  A
C2807      C2808   1.404       .  A
C2807      F2814   1.357   1_554  S
C2808      C2809   1.408       .  A
C2808      F2813   1.354       .  S
C2809      C2810   1.399       .  A
C2810      F2811   1.357       .  S
C2815      C2816   1.412       .  A
C2815      C2820   1.407       .  A
C2815      F2822   1.357       .  S
C2816      C2817   1.417       .  A
C2817      C2818   1.408       .  A
C2817      F2824   1.356       .  S
C2818      C2819   1.404       .  A
C2818      F2823   1.357       .  S
C2819      C2820   1.406       .  A
C2820      F2821   1.357       .  S
C2825      C2826   1.421       .  A
C2825      C2830   1.406       .  A
C2825      F2832   1.355       .  S
C2826      C2827   1.419       .  A
C2827      C2828   1.410       .  A
C2827      F2834   1.356       .  S
C2828      C2829   1.403       .  A
C2828      F2833   1.357       .  S
C2829      C2830   1.403       .  A
C2830      F2831   1.358       .  S
C2835      C2836   1.411       .  A
C2835      C2840   1.402       .  A
C2835      F2842   1.357       .  S
C2836      C2837   1.409       .  A
C2837      C2838   1.406       .  A
C2837      F2844   1.357       .  S
C2838      C2839   1.404       .  A
C2838      F2843   1.356       .  S
C2839      C2840   1.402       .  A
C2840      F2841   1.357       .  S
C2845      C2846   1.406       .  A
C2845      C2850   1.394       .  A
C2845      F2852   1.357       .  S
C2846      C2847   1.399       .  A
C2847      C2848   1.397       .  A
C2847      F2854   1.357       .  S
C2848      C2849   1.405       .  A
C2848      F2853   1.358       .  S
C2849      C2850   1.400       .  A
C2850      F2851   1.358       .  S
C2855      C2856   1.421       .  A
C2855      C2860   1.409       .  A
C2855      F2862   1.354       .  S
C2856      C2857   1.422       .  A
C2857      C2858   1.406       .  A
C2857      F2864   1.356       .  S
C2858      C2859   1.402       .  A
C2858      F2863   1.358       .  S
C2859      C2860   1.402       .  A
C2860      F2861   1.357       .  S
C2865      C2866   1.421       .  A
C2865      C2870   1.419       .  A
C2865      F2872   1.356       .  S
C2866      C2867   1.419       .  A
C2867      C2868   1.422       .  A
C2867      F2874   1.356       .  S
C2868      C2869   1.413       .  A
C2868      F2873   1.357       .  S
C2869      C2870   1.410       .  A
C2870      F2871   1.355   1_554  S
C2875      C2876   1.411       .  A
C2875      C2880   1.422       .  A
C2875      F2882   1.357       .  S
C2876      C2877   1.409       .  A
C2877      C2878   1.416       .  A
C2877      F2884   1.357       .  S
C2878      C2879   1.425       .  A
C2878      F2883   1.353       .  S
C2879      C2880   1.426       .  A
C2880      F2881   1.355       .  S
C2885      C2886   1.418       .  A
C2885      C2890   1.399       .  A
C2885      F2892   1.357       .  S
C2886      C2887   1.408       .  A
C2887      C2888   1.407       .  A
C2887      F2894   1.356       .  S
C2888      C2889   1.407       .  A
C2888      F2893   1.357       .  S
C2889      C2890   1.399       .  A
C2890      F2891   1.358       .  S
C2895      C2896   1.396       .  A
C2895      C2900   1.378       .  A
C2895      F2902   1.359       .  S
C2896      C2897   1.391       .  A
C2897      C2898   1.384       .  A
C2897      F2904   1.358       .  S
C2898      C2899   1.411       .  A
C2898      F2903   1.358       .  S
C2899      C2900   1.406       .  A
C2900      F2901   1.359       .  S
C2905      C2906   1.399       .  A
C2905      C2910   1.393       .  A
C2905      F2912   1.356       .  S
C2906      C2907   1.399       .  A
C2907      C2908   1.400       .  A
C2907      F2914   1.357       .  S
C2908      C2909   1.413       .  A
C2908      F2913   1.358       .  S
C2909      C2910   1.413       .  A
C2910      F2911   1.358       .  S
C2915      C2916   1.406       .  A
C2915      C2920   1.413       .  A
C2915      F2922   1.357       .  S
C2916      C2917   1.402       .  A
C2917      C2918   1.403       .  A
C2917      F2924   1.358       .  S
C2918      C2919   1.420       .  A
C2918      F2923   1.356       .  S
C2919      C2920   1.419       .  A
C2920      F2921   1.355   1_556  S
C2925      C2926   1.409       .  A
C2925      C2930   1.399       .  A
C2925      F2932   1.357       .  S
C2926      C2927   1.410       .  A
C2927      C2928   1.396       .  A
C2927      F2934   1.357       .  S
C2928      C2929   1.400       .  A
C2928      F2933   1.358       .  S
C2929      C2930   1.403       .  A
C2930      F2931   1.357       .  S
C2935      C2936   1.406       .  A
C2935      C2940   1.395       .  A
C2935      F2942   1.358       .  S
C2936      C2937   1.397       .  A
C2937      C2938   1.388       .  A
C2937      F2944   1.358       .  S
C2938      C2939   1.407       .  A
C2938      F2943   1.358       .  S
C2939      C2940   1.402       .  A
C2940      F2941   1.358       .  S
C2945      C2946   1.405       .  A
C2945      C2950   1.398       .  A
C2945      F2952   1.358       .  S
C2946      C2947   1.406       .  A
C2947      C2948   1.392       .  A
C2947      F2954   1.358       .  S
C2948      C2949   1.404       .  A
C2948      F2953   1.357       .  S
C2949      C2950   1.405       .  A
C2950      F2951   1.357       .  S
C2955      C2956   1.403       .  A
C2955      C2960   1.395       .  A
C2955      F2962   1.357       .  S
C2956      C2957   1.395       .  A
C2957      C2958   1.392       .  A
C2957      F2964   1.357       .  S
C2958      C2959   1.412       .  A
C2958      F2963   1.358       .  S
C2959      C2960   1.407       .  A
C2960      F2961   1.358       .  S
C2965      C2966   1.409       .  A
C2965      C2970   1.415       .  A
C2965      F2972   1.355       .  S
C2966      C2967   1.411       .  A
C2967      C2968   1.410       .  A
C2967      F2974   1.358       .  S
C2968      C2969   1.412       .  A
C2968      F2973   1.357       .  S
C2969      C2970   1.421       .  A
C2970      F2971   1.356       .  S
C2975      C2976   1.400       .  A
C2975      C2980   1.405       .  A
C2975      F2982   1.358       .  S
C2976      C2977   1.405       .  A
C2977      C2978   1.409       .  A
C2977      F2984   1.356       .  S
C2978      C2979   1.419       .  A
C2978      F2983   1.351       .  S
C2979      C2980   1.421       .  A
C2980      F2981   1.358       .  S
C2985      C2986   1.406       .  A
C2985      C2990   1.389       .  A
C2985      F2992   1.359       .  S
C2986      C2987   1.398       .  A
C2987      C2988   1.395       .  A
C2987      F2994   1.357       .  S
C2988      C2989   1.407       .  A
C2988      F2993   1.357       .  S
C2989      C2990   1.401       .  A
C2990      F2991   1.358       .  S
C2995      C2996   1.416       .  A
C2995      C3000   1.408       .  A
C2995      F3002   1.356       .  S
C2996      C2997   1.418       .  A
C2997      C2998   1.405       .  A
C2997      F3004   1.356       .  S
C2998      C2999   1.402       .  A
C2998      F3003   1.357       .  S
C2999      C3000   1.405       .  A
C3000      F3001   1.356       .  S
C3005      C3006   1.423       .  A
C3005      C3010   1.411       .  A
C3005      F3012   1.357       .  S
C3006      C3007   1.420       .  A
C3007      C3008   1.418       .  A
C3007      F3014   1.355       .  S
C3008      C3009   1.411       .  A
C3008      F3013   1.357       .  S
C3009      C3010   1.403       .  A
C3010      F3011   1.357       .  S
C3015      C3016   1.400       .  A
C3015      C3020   1.402       .  A
C3015      F3022   1.358       .  S
C3016      C3017   1.407       .  A
C3017      C3018   1.400       .  A
C3017      F3024   1.358       .  S
C3018      C3019   1.402       .  A
C3018      F3023   1.356       .  S
C3019      C3020   1.418       .  A
C3020      F3021   1.358       .  S
C3025      C3026   1.408       .  A
C3025      C3030   1.390       .  A
C3025      F3032   1.359       .  S
C3026      C3027   1.404       .  A
C3027      C3028   1.397       .  A
C3027      F3034   1.358       .  S
C3028      C3029   1.406       .  A
C3028      F3033   1.358       .  S
C3029      C3030   1.400       .  A
C3030      F3031   1.356       .  S
C3035      C3036   1.396       .  A
C3035      C3040   1.394       .  A
C3035      F3042   1.357       .  S
C3036      C3037   1.405       .  A
C3037      C3038   1.396       .  A
C3037      F3044   1.357       .  S
C3038      C3039   1.401       .  A
C3038      F3043   1.358       .  S
C3039      C3040   1.408       .  A
C3040      F3041   1.358       .  S
C3045      C3046   1.410       .  A
C3045      C3050   1.405       .  A
C3045      F3052   1.357       .  S
C3046      C3047   1.413       .  A
C3047      C3048   1.401       .  A
C3047      F3054   1.356       .  S
C3048      C3049   1.401       .  A
C3048      F3053   1.358       .  S
C3049      C3050   1.405       .  A
C3050      F3051   1.356       .  S
C3055      C3056   1.416       .  A
C3055      C3060   1.405       .  A
C3055      F3062   1.355       .  S
C3056      C3057   1.419       .  A
C3057      C3058   1.404       .  A
C3057      F3064   1.358       .  S
C3058      C3059   1.403       .  A
C3058      F3063   1.355       .  S
C3059      C3060   1.404       .  A
C3060      F3061   1.358       .  S
C3065      C3066   1.398       .  A
C3065      C3070   1.392       .  A
C3065      F3072   1.358       .  S
C3066      C3067   1.405       .  A
C3067      C3068   1.390       .  A
C3067      F3074   1.357       .  S
C3068      C3069   1.397       .  A
C3068      F3073   1.358       .  S
C3069      C3070   1.405       .  A
C3070      F3071   1.358       .  S
C3075      C3076   1.410       .  A
C3075      C3080   1.399       .  A
C3075      F3082   1.357       .  S
C3076      C3077   1.401       .  A
C3077      C3078   1.404       .  A
C3077      F3084   1.357       .  S
C3078      C3079   1.412       .  A
C3078      F3083   1.358       .  S
C3079      C3080   1.401       .  A
C3080      F3081   1.358       .  S
C3085      C3086   1.399       .  A
C3085      C3090   1.386       .  A
C3085      F3092   1.355       .  S
C3086      C3087   1.404       .  A
C3087      C3088   1.392       .  A
C3087      F3094   1.357       .  S
C3088      C3089   1.399       .  A
C3088      F3093   1.358       .  S
C3089      C3090   1.402       .  A
C3090      F3091   1.359       .  S
C3095      C3096   1.404       .  A
C3095      C3100   1.412       .  A
C3095      F3102   1.356       .  S
C3096      C3097   1.413       .  A
C3097      C3098   1.413       .  A
C3097      F3104   1.358       .  S
C3098      C3099   1.410       .  A
C3098      F3103   1.356       .  S
C3099      C3100   1.422       .  A
C3100      F3101   1.356       .  S
C3105      C3106   1.404       .  A
C3105      C3110   1.414       .  A
C3105      F3112   1.357       .  S
C3106      C3107   1.412       .  A
C3107      C3108   1.419       .  A
C3107      F3114   1.355       .  S
C3108      C3109   1.421       .  A
C3108      F3113   1.351       .  S
C3109      C3110   1.425       .  A
C3110      F3111   1.357       .  S
C3115      C3116   1.400       .  A
C3115      C3120   1.386       .  A
C3115      F3122   1.358       .  S
C3116      C3117   1.411       .  A
C3117      C3118   1.391       .  A
C3117      F3124   1.357       .  S
C3118      C3119   1.393       .  A
C3118      F3123   1.358       .  S
C3119      C3120   1.404       .  A
C3120      F3121   1.358       .  S
C3125      C3126   1.413       .  A
C3125      C3130   1.404       .  A
C3125      F3132   1.357       .  S
C3126      C3127   1.410       .  A
C3127      C3128   1.404       .  A
C3127      F3134   1.357       .  S
C3128      C3129   1.404       .  A
C3128      F3133   1.356       .  S
C3129      C3130   1.402       .  A
C3130      F3131   1.357       .  S
C3135      C3136   1.431       .  A
C3135      C3140   1.439       .  A
C3135      F3142   1.354       .  S
C3136      C3137   1.430       .  A
C3137      C3138   1.444       .  A
C3137      F3144   1.356       .  S
C3138      C3139   1.422       .  A
C3138      F3143   1.357       .  S
C3139      C3140   1.421       .  A
C3140      F3141   1.357       .  S
C3145      C3146   1.416       .  A
C3145      C3150   1.387   1_565  A
C3145      F3152   1.344       .  S
C3146      C3147   1.411   1_565  A
C3147      C3148   1.396       .  A
C3147      F3154   1.356       .  S
C3148      C3149   1.408       .  A
C3148      F3153   1.355       .  S
C3149      C3150   1.400       .  A
C3150      F3151   1.358       .  S
C3155      C3156   1.410       .  A
C3155      C3160   1.417       .  A
C3155      F3162   1.356       .  S
C3156      C3157   1.402       .  A
C3157      C3158   1.411       .  A
C3157      F3164   1.358       .  S
C3158      C3159   1.426       .  A
C3158      F3163   1.356       .  S
C3159      C3160   1.416       .  A
C3160      F3161   1.355       .  S
C3165      C3166   1.411       .  A
C3165      C3170   1.422       .  A
C3165      F3172   1.357       .  S
C3166      C3167   1.411       .  A
C3167      C3168   1.422       .  A
C3167      F3174   1.357       .  S
C3168      C3169   1.424       .  A
C3168      F3173   1.356       .  S
C3169      C3170   1.425       .  A
C3170      F3171   1.354       .  S
C3175      C3176   1.410       .  A
C3175      C3180   1.395       .  A
C3175      F3182   1.357       .  S
C3176      C3177   1.406       .  A
C3177      C3178   1.390       .  A
C3177      F3184   1.357       .  S
C3178      C3179   1.403       .  A
C3178      F3183   1.357       .  S
C3179      C3180   1.397       .  A
C3180      F3181   1.358       .  S
C3185      C3186   1.420       .  A
C3185      C3190   1.411       .  A
C3185      F3192   1.356       .  S
C3186      C3187   1.419       .  A
C3187      C3188   1.418       .  A
C3187      F3194   1.356       .  S
C3188      C3189   1.409       .  A
C3188      F3193   1.357       .  S
C3189      C3190   1.404       .  A
C3190      F3191   1.357       .  S
C3195      C3196   1.397       .  A
C3195      C3200   1.393       .  A
C3195      F3202   1.357       .  S
C3196      C3197   1.399       .  A
C3197      C3198   1.379       .  A
C3197      F3204   1.358       .  S
C3198      C3199   1.399       .  A
C3198      F3203   1.353       .  S
C3199      C3200   1.403       .  A
C3200      F3201   1.358       .  S
C3205      C3206   1.416       .  A
C3205      C3210   1.426   1_655  A
C3205      F3212   1.357       .  S
C3206      C3207   1.414       .  A
C3207      C3208   1.432       .  A
C3207      F3214   1.357       .  S
C3208      C3209   1.429       .  A
C3208      F3213   1.356       .  S
C3209      C3210   1.425   1_655  A
C3210      F3211   1.354       .  S
C3215      C3216   1.408       .  A
C3215      C3220   1.404       .  A
C3215      F3222   1.356       .  S
C3216      C3217   1.401       .  A
C3217      C3218   1.399       .  A
C3217      F3224   1.358       .  S
C3218      C3219   1.415       .  A
C3218      F3223   1.358       .  S
C3219      C3220   1.408       .  A
C3220      F3221   1.357       .  S
C3225      C3226   1.399       .  A
C3225      C3230   1.382       .  A
C3225      F3232   1.358       .  S
C3226      C3227   1.405       .  A
C3227      C3228   1.386       .  A
C3227      F3234   1.358       .  S
C3228      C3229   1.393       .  A
C3228      F3233   1.357       .  S
C3229      C3230   1.399       .  A
C3230      F3231   1.357       .  S
C3235      C3236   1.403       .  A
C3235      C3240   1.396       .  A
C3235      F3242   1.358       .  S
C3236      C3237   1.400       .  A
C3237      C3238   1.394       .  A
C3237      F3244   1.355       .  S
C3238      C3239   1.411       .  A
C3238      F3243   1.357       .  S
C3239      C3240   1.405       .  A
C3240      F3241   1.357       .  S
C3245      C3246   1.398       .  A
C3245      C3250   1.394       .  A
C3245      F3252   1.353       .  S
C3246      C3247   1.400       .  A
C3247      C3248   1.404       .  A
C3247      F3254   1.357       .  S
C3248      C3249   1.418       .  A
C3248      F3253   1.358       .  S
C3249      C3250   1.418       .  A
C3250      F3251   1.354       .  S
C3255      C3256   1.404       .  A
C3255      C3260   1.388       .  A
C3255      F3262   1.356       .  S
C3256      C3257   1.398       .  A
C3257      C3258   1.394       .  A
C3257      F3264   1.358       .  S
C3258      C3259   1.407       .  A
C3258      F3263   1.357       .  S
C3259      C3260   1.400       .  A
C3260      F3261   1.358       .  S
C3265      C3266   1.396       .  A
C3265      C3270   1.390       .  A
C3265      F3272   1.358       .  S
C3266      C3267   1.401       .  A
C3267      C3268   1.375       .  A
C3267      F3274   1.359       .  S
C3268      C3269   1.393       .  A
C3268      F3273   1.359       .  S
C3269      C3270   1.402       .  A
C3270      F3271   1.358       .  S
C3275      C3276   1.407       .  A
C3275      C3280   1.408       .  A
C3275      F3282   1.356       .  S
C3276      C3277   1.409       .  A
C3277      C3278   1.400       .  A
C3277      F3284   1.354       .  S
C3278      C3279   1.402       .  A
C3278      F3283   1.358       .  S
C3279      C3280   1.407       .  A
C3280      F3281   1.357       .  S
C3285      C3286   1.418       .  A
C3285      C3290   1.435       .  A
C3285      F3292   1.357       .  S
C3286      C3287   1.423       .  A
C3287      C3288   1.426       .  A
C3287      F3294   1.351       .  S
C3288      C3289   1.421       .  A
C3288      F3293   1.354       .  S
C3289      C3290   1.428       .  A
C3290      F3291   1.356       .  S
C3295      C3296   1.404       .  A
C3295      C3300   1.403       .  A
C3295      F3302   1.358       .  S
C3296      C3297   1.417       .  A
C3297      C3298   1.417       .  A
C3297      F3304   1.355       .  S
C3298      C3299   1.408       .  A
C3298      F3303   1.357       .  S
C3299      C3300   1.413       .  A
C3300      F3301   1.357       .  S
C3305      C3306   1.398       .  A
C3305      C3310   1.389       .  A
C3305      F3312   1.358       .  S
C3306      C3307   1.405       .  A
C3307      C3308   1.396       .  A
C3307      F3314   1.358       .  S
C3308      C3309   1.403       .  A
C3308      F3313   1.358       .  S
C3309      C3310   1.407       .  A
C3310      F3311   1.357       .  S
C3315      C3316   1.409       .  A
C3315      C3320   1.408       .  A
C3315      F3322   1.357       .  S
C3316      C3317   1.408       .  A
C3317      C3318   1.410       .  A
C3317      F3324   1.357       .  S
C3318      C3319   1.407       .  A
C3318      F3323   1.357       .  S
C3319      C3320   1.407       .  A
C3320      F3321   1.357       .  S
C3325      C3326   1.417       .  A
C3325      C3330   1.401       .  A
C3325      F3332   1.357       .  S
C3326      C3327   1.421       .  A
C3327      C3328   1.403       .  A
C3327      F3334   1.355       .  S
C3328      C3329   1.400       .  A
C3328      F3333   1.358       .  S
C3329      C3330   1.401       .  A
C3330      F3331   1.358       .  S
C3335      C3336   1.403       .  A
C3335      C3340   1.406       .  A
C3335      F3342   1.357       .  S
C3336      C3337   1.408       .  A
C3337      C3338   1.400       .  A
C3337      F3344   1.357       .  S
C3338      C3339   1.405       .  A
C3338      F3343   1.358       .  S
C3339      C3340   1.409       .  A
C3340      F3341   1.357       .  S
C3345      C3346   1.398       .  A
C3345      C3350   1.391       .  A
C3345      F3352   1.358       .  S
C3346      C3347   1.409       .  A
C3347      C3348   1.384       .  A
C3347      F3354   1.354       .  S
C3348      C3349   1.401       .  A
C3348      F3353   1.359       .  S
C3349      C3350   1.410       .  A
C3350      F3351   1.358       .  S
C3355      C3356   1.395       .  A
C3355      C3360   1.389       .  A
C3355      F3362   1.357       .  S
C3356      C3357   1.406       .  A
C3357      C3358   1.380       .  A
C3357      F3364   1.354       .  S
C3358      C3359   1.395       .  A
C3358      F3363   1.359       .  S
C3359      C3360   1.406       .  A
C3360      F3361   1.358       .  S
C3365      C3366   1.399       .  A
C3365      C3370   1.399       .  A
C3365      F3372   1.358       .  S
C3366      C3367   1.407       .  A
C3367      C3368   1.391       .  A
C3367      F3374   1.351       .  S
C3368      C3369   1.404       .  A
C3368      F3373   1.357       .  S
C3369      C3370   1.415       .  A
C3370      F3371   1.356       .  S
C3375      C3376   1.413       .  A
C3375      C3380   1.392       .  A
C3375      F3382   1.358       .  S
C3376      C3377   1.404       .  A
C3377      C3378   1.399       .  A
C3377      F3384   1.356       .  S
C3378      C3379   1.409       .  A
C3378      F3383   1.358       .  S
C3379      C3380   1.404       .  A
C3380      F3381   1.351       .  S
C3385      C3386   1.392       .  A
C3385      C3390   1.391       .  A
C3385      F3392   1.358       .  S
C3386      C3387   1.409       .  A
C3387      C3388   1.386       .  A
C3387      F3394   1.357       .  S
C3388      C3389   1.396       .  A
C3388      F3393   1.358       .  S
C3389      C3390   1.411       .  A
C3390      F3391   1.354       .  S
C3395      C3396   1.397       .  A
C3395      C3400   1.388       .  A
C3395      F3402   1.358       .  S
C3396      C3397   1.401       .  A
C3397      C3398   1.381       .  A
C3397      F3404   1.357       .  S
C3398      C3399   1.393       .  A
C3398      F3403   1.358       .  S
C3399      C3400   1.403       .  A
C3400      F3401   1.359       .  S
C3405      C3406   1.403       .  A
C3405      C3410   1.406       .  A
C3405      F3412   1.357       .  S
C3406      C3407   1.403       .  A
C3407      C3408   1.398       .  A
C3407      F3414   1.356       .  S
C3408      C3409   1.414       .  A
C3408      F3413   1.358       .  S
C3409      C3410   1.414       .  A
C3410      F3411   1.357       .  S
C3415      C3416   1.429       .  A
C3415      C3420   1.419       .  A
C3415      F3422   1.356       .  S
C3416      C3417   1.423       .  A
C3417      C3418   1.427       .  A
C3417      F3424   1.353       .  S
C3418      C3419   1.413       .  A
C3418      F3423   1.357       .  S
C3419      C3420   1.406       .  A
C3420      F3421   1.357       .  S
C3425      C3426   1.402       .  A
C3425      C3430   1.408       .  A
C3425      F3432   1.356       .  S
C3426      C3427   1.404       .  A
C3427      C3428   1.409       .  A
C3427      F3434   1.358       .  S
C3428      C3429   1.420       .  A
C3428      F3433   1.354       .  S
C3429      C3430   1.424       .  A
C3430      F3431   1.356       .  S
C3435      C3436   1.395       .  A
C3435      C3440   1.390       .  A
C3435      F3442   1.358       .  S
C3436      C3437   1.403       .  A
C3437      C3438   1.395       .  A
C3437      F3444   1.358       .  S
C3438      C3439   1.402       .  A
C3438      F3443   1.358       .  S
C3439      C3440   1.406       .  A
C3440      F3441   1.353       .  S
C3445      C3446   1.422       .  A
C3445      C3450   1.420       .  A
C3445      F3452   1.355       .  S
C3446      C3447   1.426       .  A
C3447      C3448   1.419       .  A
C3447      F3454   1.355       .  S
C3448      C3449   1.407       .  A
C3448      F3453   1.357   1_565  S
C3449      C3450   1.410       .  A
C3450      F3451   1.356       .  S
C3455      C3456   1.405       .  A
C3455      C3460   1.405       .  A
C3455      F3462   1.357       .  S
C3456      C3457   1.405       .  A
C3457      C3458   1.387       .  A
C3457      F3464   1.358       .  S
C3458      C3459   1.402       .  A
C3458      F3463   1.356       .  S
C3459      C3460   1.407       .  A
C3460      F3461   1.358       .  S
C3465      C3466   1.429       .  A
C3465      C3470   1.417       .  A
C3465      F3472   1.354       .  S
C3466      C3467   1.423       .  A
C3467      C3468   1.426       .  A
C3467      F3474   1.356       .  S
C3468      C3469   1.414       .  A
C3468      F3473   1.357       .  S
C3469      C3470   1.405       .  A
C3470      F3471   1.358       .  S
C3475      C3476   1.406       .  A
C3475      C3480   1.404       .  A
C3475      F3482   1.357       .  S
C3476      C3477   1.408       .  A
C3477      C3478   1.405       .  A
C3477      F3484   1.357       .  S
C3478      C3479   1.405       .  A
C3478      F3483   1.357       .  S
C3479      C3480   1.406       .  A
C3480      F3481   1.357       .  S
C3485      C3486   1.409       .  A
C3485      C3490   1.406       .  A
C3485      F3492   1.356       .  S
C3486      C3487   1.422       .  A
C3487      C3488   1.398       .  A
C3487      F3494   1.356       .  S
C3488      C3489   1.396       .  A
C3488      F3493   1.357       .  S
C3489      C3490   1.411       .  A
C3490      F3491   1.358       .  S
C3495      C3496   1.421       .  A
C3495      C3500   1.413       .  A
C3495      F3502   1.353       .  S
C3496      C3497   1.420       .  A
C3497      C3498   1.407       .  A
C3497      F3504   1.358       .  S
C3498      C3499   1.403       .  A
C3498      F3503   1.358       .  S
C3499      C3500   1.405       .  A
C3500      F3501   1.357       .  S
C3505      C3506   1.416       .  A
C3505      C3510   1.388       .  A
C3505      F3512   1.355       .  S
C3506      C3507   1.410   1_565  A
C3507      C3508   1.411       .  A
C3507      F3514   1.357       .  S
C3508      C3509   1.409   1_545  A
C3508      F3513   1.357       .  S
C3509      C3510   1.392       .  A
C3510      F3511   1.358       .  S
C3515      C3516   1.425       .  A
C3515      C3520   1.408       .  A
C3515      F3522   1.356       .  S
C3516      C3517   1.417       .  A
C3517      C3518   1.417       .  A
C3517      F3524   1.355       .  S
C3518      C3519   1.411       .  A
C3518      F3523   1.357       .  S
C3519      C3520   1.403       .  A
C3520      F3521   1.356       .  S
C3525      C3526   1.425       .  A
C3525      C3530   1.420       .  A
C3525      F3532   1.356       .  S
C3526      C3527   1.415       .  A
C3527      C3528   1.422       .  A
C3527      F3534   1.357       .  S
C3528      C3529   1.417       .  A
C3528      F3533   1.357       .  S
C3529      C3530   1.407       .  A
C3530      F3531   1.357       .  S
C3535      C3536   1.402       .  A
C3535      C3540   1.391       .  A
C3535      F3542   1.358       .  S
C3536      C3537   1.397       .  A
C3537      C3538   1.387       .  A
C3537      F3544   1.356       .  S
C3538      C3539   1.408       .  A
C3538      F3543   1.358       .  S
C3539      C3540   1.403       .  A
C3540      F3541   1.358       .  S
C3545      C3546   1.399       .  A
C3545      C3550   1.393       .  A
C3545      F3552   1.357       .  S
C3546      C3547   1.402       .  A
C3547      C3548   1.402       .  A
C3547      F3554   1.357       .  S
C3548      C3549   1.410       .  A
C3548      F3553   1.358       .  S
C3549      C3550   1.411       .  A
C3550      F3551   1.358       .  S
C3555      C3556   1.410       .  A
C3555      C3560   1.414       .  A
C3555      F3562   1.357       .  S
C3556      C3557   1.395       .  A
C3557      C3558   1.395       .  A
C3557      F3564   1.358       .  S
C3558      C3559   1.422       .  A
C3558      F3563   1.357       .  S
C3559      C3560   1.411       .  A
C3560      F3561   1.355       .  S
C3565      C3566   1.408       .  A
C3565      C3570   1.402       .  A
C3565      F3572   1.357       .  S
C3566      C3567   1.404       .  A
C3567      C3568   1.403       .  A
C3567      F3574   1.357       .  S
C3568      C3569   1.407       .  A
C3568      F3573   1.357       .  S
C3569      C3570   1.403       .  A
C3570      F3571   1.357       .  S
C3575      C3576   1.395       .  A
C3575      C3580   1.381       .  A
C3575      F3582   1.356       .  S
C3576      C3577   1.408       .  A
C3577      C3578   1.394       .  A
C3577      F3584   1.352       .  S
C3578      C3579   1.402       .  A
C3578      F3583   1.358       .  S
C3579      C3580   1.411       .  A
C3580      F3581   1.357       .  S
C3585      C3586   1.407       .  A
C3585      C3590   1.399       .  A
C3585      F3592   1.357       .  S
C3586      C3587   1.407       .  A
C3587      C3588   1.399       .  A
C3587      F3594   1.358       .  S
C3588      C3589   1.402       .  A
C3588      F3593   1.358       .  S
C3589      C3590   1.403       .  A
C3590      F3591   1.358       .  S
C3595      C3596   1.402       .  A
C3595      C3600   1.384       .  A
C3595      F3602   1.359       .  S
C3596      C3597   1.398       .  A
C3597      C3598   1.386       .  A
C3597      F3604   1.358       .  S
C3598      C3599   1.401       .  A
C3598      F3603   1.357       .  S
C3599      C3600   1.398       .  A
C3600      F3601   1.358       .  S
C3605      C3606   1.411       .  A
C3605      C3610   1.395       .  A
C3605      F3612   1.356       .  S
C3606      C3607   1.407       .  A
C3607      C3608   1.408       .  A
C3607      F3614   1.357       .  S
C3608      C3609   1.405       .  A
C3608      F3613   1.357       .  S
C3609      C3610   1.399       .  A
C3610      F3611   1.358       .  S
C3615      C3616   1.415       .  A
C3615      C3620   1.423       .  A
C3615      F3622   1.356       .  S
C3616      C3617   1.413       .  A
C3617      C3618   1.410       .  A
C3617      F3624   1.356       .  S
C3618      C3619   1.415       .  A
C3618      F3623   1.350       .  S
C3619      C3620   1.421       .  A
C3620      F3621   1.357       .  S
C3625      C3626   1.395       .  A
C3625      C3630   1.379       .  A
C3625      F3632   1.359       .  S
C3626      C3627   1.407       .  A
C3627      C3628   1.390       .  A
C3627      F3634   1.358       .  S
C3628      C3629   1.401       .  A
C3628      F3633   1.358       .  S
C3629      C3630   1.407       .  A
C3630      F3631   1.354       .  S
C3635      C3636   1.403       .  A
C3635      C3640   1.404       .  A
C3635      F3642   1.357       .  S
C3636      C3637   1.403       .  A
C3637      C3638   1.407       .  A
C3637      F3644   1.357       .  S
C3638      C3639   1.414       .  A
C3638      F3643   1.357       .  S
C3639      C3640   1.413       .  A
C3640      F3641   1.356       .  S
C3645      C3646   1.409       .  A
C3645      C3650   1.423       .  A
C3645      F3652   1.357       .  S
C3646      C3647   1.407       .  A
C3647      C3648   1.410       .  A
C3647      F3654   1.358       .  S
C3648      C3649   1.422       .  A
C3648      F3653   1.356       .  S
C3649      C3650   1.424       .  A
C3650      F3651   1.355       .  S
C3655      C3656   1.406       .  A
C3655      C3660   1.415       .  A
C3655      F3662   1.356       .  S
C3656      C3657   1.420       .  A
C3657      C3658   1.408       .  A
C3657      F3664   1.357       .  S
C3658      C3659   1.402       .  A
C3658      F3663   1.358       .  S
C3659      C3660   1.415       .  A
C3660      F3661   1.357       .  S
C3665      C3666   1.404       .  A
C3665      C3670   1.393       .  A
C3665      F3672   1.358       .  S
C3666      C3667   1.397       .  A
C3667      C3668   1.388       .  A
C3667      F3674   1.358       .  S
C3668      C3669   1.412       .  A
C3668      F3673   1.358       .  S
C3669      C3670   1.406       .  A
C3670      F3671   1.358       .  S
C3675      C3676   1.402       .  A
C3675      C3680   1.393       .  A
C3675      F3682   1.357       .  S
C3676      C3677   1.400       .  A
C3677      C3678   1.396       .  A
C3677      F3684   1.356       .  S
C3678      C3679   1.405       .  A
C3678      F3683   1.358       .  S
C3679      C3680   1.404       .  A
C3680      F3681   1.358       .  S
C3685      C3686   1.403       .  A
C3685      C3690   1.405       .  A
C3685      F3692   1.357       .  S
C3686      C3687   1.405       .  A
C3687      C3688   1.409       .  A
C3687      F3694   1.357       .  S
C3688      C3689   1.414       .  A
C3688      F3693   1.357       .  S
C3689      C3690   1.415       .  A
C3690      F3691   1.356       .  S
C3695      C3696   1.415       .  A
C3695      C3700   1.400       .  A
C3695      F3702   1.356       .  S
C3696      C3697   1.413       .  A
C3697      C3698   1.430       .  A
C3697      F3704   1.356       .  S
C3698      C3699   1.427       .  A
C3698      F3703   1.357   1_545  S
C3699      C3700   1.403       .  A
C3700      F3701   1.355       .  S
C3705      C3706   1.401       .  A
C3705      C3710   1.404       .  A
C3705      F3712   1.357       .  S
C3706      C3707   1.411       .  A
C3707      C3708   1.394       .  A
C3707      F3714   1.356       .  S
C3708      C3709   1.399       .  A
C3708      F3713   1.358       .  S
C3709      C3710   1.411       .  A
C3710      F3711   1.358       .  S
C3715      C3716   1.401       .  A
C3715      C3720   1.395       .  A
C3715      F3722   1.358       .  S
C3716      C3717   1.404       .  A
C3717      C3718   1.385       .  A
C3717      F3724   1.358       .  S
C3718      C3719   1.401       .  A
C3718      F3723   1.359       .  S
C3719      C3720   1.405       .  A
C3720      F3721   1.358       .  S
C3725      C3726   1.400       .  A
C3725      C3730   1.393       .  A
C3725      F3732   1.358       .  S
C3726      C3727   1.405       .  A
C3727      C3728   1.394       .  A
C3727      F3734   1.358       .  S
C3728      C3729   1.399       .  A
C3728      F3733   1.357       .  S
C3729      C3730   1.406       .  A
C3730      F3731   1.356       .  S
C3735      C3736   1.421       .  A
C3735      C3740   1.424       .  A
C3735      F3742   1.357       .  S
C3736      C3737   1.415       .  A
C3737      C3738   1.432       .  A
C3737      F3744   1.356       .  S
C3738      C3739   1.430       .  A
C3738      F3743   1.356       .  S
C3739      C3740   1.415       .  A
C3740      F3741   1.356       .  S
C3745      C3746   1.405       .  A
C3745      C3750   1.417       .  A
C3745      F3752   1.358       .  S
C3746      C3747   1.416       .  A
C3747      C3748   1.430       .  A
C3747      F3754   1.356       .  S
C3748      C3749   1.421       .  A
C3748      F3753   1.353       .  S
C3749      C3750   1.428       .  A
C3750      F3751   1.357       .  S
C3755      C3756   1.417       .  A
C3755      C3760   1.393       .  A
C3755      F3762   1.357       .  S
C3756      C3757   1.403       .  A
C3757      C3758   1.391       .  A
C3757      F3764   1.357       .  S
C3758      C3759   1.405       .  A
C3758      F3763   1.359       .  S
C3759      C3760   1.395       .  A
C3760      F3761   1.358       .  S
