geometry optimzed in LAMMPS
_audit_creation_date              2020-11-30 
_audit_creation_method            'lammps2cif' 
_symmetry_space_group_name_H-M    'P1' 
_symmetry_Int_Tables_number       1 
_symmetry_cell_setting            triclinic 
loop_ 
_symmetry_equiv_pos_as_xyz 
  x,y,z 
_cell_length_a                    25.90651834 
_cell_length_b                    49.64300038460617 
_cell_length_c                    31.648254621698417 
_cell_angle_alpha                 89.14288627257793 
_cell_angle_beta                  89.74563421888806 
_cell_angle_gamma                 90.2978720710391 
loop_ 
_atom_site_label 
_atom_site_type_symbol 
_atom_site_fract_x 
_atom_site_fract_y 
_atom_site_fract_z 
_atom_site_charge 
O1          O  0.40845236  0.19980662  0.06581126    -0.75400
O2          O  0.45792013  0.22049291  0.11557529    -0.54300
C3          C  0.42221301  0.20440700  0.10389313     0.78300
O4          O  0.61676949  0.19548505  0.43080534    -0.60000
O5          O  0.57866616  0.22054853  0.37863753    -0.53000
C6          C  0.60980381  0.20243233  0.39197318     0.70300
O7          O  0.60148935  0.19477647  0.07542884    -0.74600
O8          O  0.56173596  0.22150085  0.12333777    -0.55100
C9          C  0.59189170  0.20234844  0.11345326     0.76300
O10         O  0.41248454  0.19889933  0.42261009    -0.59700
O11         O  0.46458412  0.22046004  0.37438982    -0.52800
C12         C  0.42818020  0.20397331  0.38467085     0.72900
Zr13       Zr  0.43360182  0.21347857  0.99517353     2.54700
O14         O  0.42312643  0.16467856  0.99593142    -0.80300
O15         O  0.34174547  0.22495068  0.49283923    -0.93700
Zr16       Zr  0.58482148  0.20601092  0.00162255     2.64700
O17         O  0.56672217  0.15782344  0.00235751    -0.98700
O18         O  0.67664157  0.19653067  0.50584524    -0.80700
O19         O  0.50693799  0.20960675  0.03929373    -0.84100
O20         O  0.51132388  0.20836999  0.45636271    -2.18800
O21         O  0.41837598  0.30004857  0.42191535    -0.67500
O22         O  0.46793227  0.27847148  0.37329352    -0.52000
C23         C  0.43089891  0.29398018  0.38394813     0.71300
O24         O  0.62204068  0.30077006  0.06648133    -0.60400
O25         O  0.57247309  0.27919819  0.11627925    -0.52400
C26         C  0.60872275  0.29551424  0.10460190     0.73100
O27         O  0.63085591  0.29641375  0.42684123    -0.71800
O28         O  0.58359353  0.27516814  0.37708878    -0.50400
C29         C  0.62097488  0.29041084  0.38864818     0.74500
O30         O  0.42144149  0.30643407  0.06589851    -0.67100
O31         O  0.45837855  0.27921220  0.11580040    -0.54300
C32         C  0.42863442  0.29836954  0.10422923     0.72900
Zr33       Zr  0.44837585  0.29297586  0.49325824     2.77500
O34         O  0.47699809  0.34042243  0.98705079    -0.97800
O35         O  0.35749426  0.30515969  0.49452656    -0.78700
Zr36       Zr  0.59983767  0.28511576  0.49616604     2.70100
O37         O  0.62246303  0.33272232  0.49163550    -0.79900
O38         O  0.68983248  0.26996798  0.00186110    -0.99000
Zr39       Zr  0.51412425  0.25040458  0.07730411     2.21500
Zr40       Zr  0.52018970  0.24899153  0.41570080     2.11100
O41         O  0.52561591  0.28993116  0.45352463    -2.47700
O42         O  0.52401409  0.29095277  0.03769363    -0.79700
O43         O  0.44089917  0.25317198  0.45294605    -0.71900
O44         O  0.59356812  0.24597144  0.04063356    -2.32900
O45         O  0.43781099  0.25346137  0.03563589    -2.29100
O46         O  0.59530107  0.24508010  0.45761031    -0.73700
H47         H  0.51027206  0.19268530  0.43867841     0.78300
H48         H  0.62253081  0.24490625  0.05969953     0.79400
H49         H  0.52894452  0.30529304  0.43457011     0.81600
H50         H  0.40720367  0.25456789  0.05305085     0.79300
H51         H  0.69396556  0.21351884  0.00536438     0.42300
H52         H  0.69703642  0.26217099  0.47421313     0.41300
H53         H  0.60065587  0.34141195  0.97834908     0.40900
H54         H  0.43852328  0.34987733  0.48543471     0.38900
H55         H  0.33893974  0.28802882  0.48945308     0.42000
H56         H  0.33578725  0.23821979  0.98215065     0.36800
H57         H  0.45027931  0.15796944  0.01524790     0.42900
H58         H  0.59961384  0.14972123  0.51424880     0.39300
H59         H  0.48776241  0.34497628  0.51293592     0.44200
H60         H  0.32885283  0.21953889  0.02208092     0.43000
H61         H  0.54422487  0.15487077  0.02738685     0.43100
H62         H  0.70952593  0.28726137  0.50200083     0.43500
O63         O  0.39162363  0.44846719  0.07540552    -0.75400
O64         O  0.44437497  0.46959336  0.12219185    -0.54300
C65         C  0.40452169  0.45502370  0.11326307     0.78300
O66         O  0.61054115  0.44210756  0.42834317    -0.60000
O67         O  0.56179442  0.46158648  0.37629825    -0.53000
C68         C  0.59989455  0.44720915  0.38921926     0.70300
O69         O  0.61168426  0.44547828  0.07163030    -0.74600
O70         O  0.56351250  0.46816931  0.12007178    -0.55100
C71         C  0.60106099  0.45259121  0.10979848     0.76300
O72         O  0.39226552  0.44178536  0.43269134    -0.59700
O73         O  0.43873518  0.46152571  0.37893360    -0.52800
C74         C  0.40229204  0.44625104  0.39340341     0.72900
Zr75       Zr  0.42508936  0.45409307  0.00289061     2.54700
O76         O  0.43483344  0.40572800  0.01331022    -0.80300
O77         O  0.32971797  0.45457972  0.49557822    -0.93700
Zr78       Zr  0.57641908  0.45118150  0.99980614     2.64700
O79         O  0.55904859  0.40300442  0.00621564    -0.98700
O80         O  0.66648981  0.43973471  0.50247850    -0.80700
O81         O  0.50175312  0.45346672  0.04362514    -0.84100
O82         O  0.49828156  0.45051246  0.45827078    -2.18800
O83         O  0.39773473  0.04189676  0.42104572    -0.67500
O84         O  0.44317231  0.01797491  0.37258151    -0.52000
C85         C  0.40760532  0.03480740  0.38289676     0.71300
O86         O  0.61299597  0.04399122  0.05875795    -0.60400
O87         O  0.56726831  0.02356860  0.11247197    -0.52400
C88         C  0.60351435  0.03912223  0.09819262     0.73100
O89         O  0.61962822  0.03183426  0.41662266    -0.71800
O90         O  0.56326606  0.01352661  0.36978087    -0.50400
C91         C  0.60552784  0.02597094  0.37866628     0.74500
O92         O  0.40188956  0.04817582  0.06101802    -0.67100
O93         O  0.44360237  0.02548791  0.11390021    -0.54300
C94         C  0.41014424  0.04273026  0.10021170     0.72900
Zr95       Zr  0.43079251  0.03336068  0.49207812     2.77500
O96         O  0.44404300  0.08232413  0.98467307    -0.97800
O97         O  0.33733580  0.03917886  0.99665739    -0.78700
Zr98       Zr  0.58251699  0.03062237  0.48886944     2.70100
O99         O  0.57372865  0.07875887  0.47518365    -0.79900
O100        O  0.67519165  0.03496882  0.99444220    -0.99000
Zr101      Zr  0.50498774  0.49599843  0.07814389     2.21500
Zr102      Zr  0.50151121  0.49005688  0.41349209     2.11100
O103        O  0.50554909  0.03148248  0.44858761    -2.47700
O104        O  0.50713086  0.03429068  0.03289781    -0.79700
O105        O  0.42602677  0.49328052  0.45630666    -0.71900
O106        O  0.58067819  0.49306115  0.03452160    -2.32900
O107        O  0.42760321  0.49598748  0.03748349    -2.29100
O108        O  0.57910970  0.48902007  0.45370477    -0.73700
H109        H  0.49650408  0.43434541  0.44170120     0.78300
H110        H  0.61169884  0.49349679  0.05125374     0.79400
H111        H  0.50645473  0.04615104  0.42819430     0.81600
H112        H  0.39738267  0.49740142  0.05523563     0.79300
H113        H  0.68522417  0.45930734  0.99902388     0.42300
H114        H  0.69005551  0.01855072  0.48669368     0.41300
H115        H  0.55639784  0.08547609  0.00389592     0.40900
H116        H  0.45839212  0.08482439  0.45669035     0.38900
H117        H  0.32575351  0.02019128  0.51012231     0.42000
H118        H  0.31797159  0.46613479  0.01089089     0.36800
H119        H  0.40024961  0.39817041  0.00726805     0.42900
H120        H  0.57656998  0.39542138  0.47573670     0.39300
H121        H  0.40798073  0.08924666  0.48298737     0.42700
H122        H  0.32216349  0.43481118  0.01779782     0.43000
H123        H  0.59116212  0.39535775  0.01814732     0.43100
H124        H  0.68591211  0.04898753  0.47299995     0.43500
O125        O  0.91019098  0.30097353  0.06666393    -0.75400
O126        O  0.95246901  0.27918090  0.11968094    -0.54300
C127        C  0.92346033  0.29829593  0.10579915     0.78300
O128        O  0.90874259  0.18271045  0.43495654    -0.60000
O129        O  0.94515254  0.20746115  0.38093564    -0.53000
C130        C  0.91680056  0.18795529  0.39548561     0.70300
O131        O  0.91544594  0.18560917  0.07788917    -0.74600
O132        O  0.95197242  0.21441824  0.12490439    -0.55100
C133        C  0.92614690  0.19291066  0.11588633     0.76300
O134        O  0.90886803  0.29965176  0.42507458    -0.59700
O135        O  0.94514282  0.27311032  0.37500765    -0.52800
C136        C  0.91908909  0.29401803  0.38625754     0.72900
Zr137      Zr  0.92010493  0.28033046  0.99695650     2.54700
O138        O  0.83179870  0.26330299  0.99711987    -0.80300
O139        O  0.88134255  0.32437652  0.49112138    -0.93700
Zr140      Zr  0.92879011  0.20204110  0.00486552     2.64700
O141        O  0.83515742  0.20466756  0.00949665    -0.98700
O142        O  0.92307228  0.15232575  0.50774053    -0.80700
O143        O  0.92363429  0.24258109  0.04382725    -0.84100
O144        O  0.92132832  0.23924948  0.45735944    -2.18800
O145        O  0.08649012  0.30230134  0.42164545    -0.67500
O146        O  0.04920801  0.27438711  0.37395746    -0.52000
C147        C  0.07566365  0.29559334  0.38355961     0.71300
O148        O  0.10139523  0.19100198  0.07443471    -0.60400
O149        O  0.05778633  0.21573919  0.12292395    -0.52400
C150        C  0.08864731  0.19655170  0.11290913     0.73100
O151        O  0.10082912  0.18891865  0.43026148    -0.71800
O152        O  0.05578127  0.21035971  0.37780557    -0.50400
C153        C  0.08914440  0.19303678  0.39115674     0.74500
O154        O  0.09859592  0.30299809  0.06063929    -0.67100
O155        O  0.05911169  0.27964426  0.11473457    -0.54300
C156        C  0.08930413  0.29831426  0.10002770     0.72900
Zr157      Zr  0.07321682  0.28448711  0.49317162     2.77500
O158        O  0.16667846  0.28374801  0.48528689    -0.97800
O159        O  0.07389383  0.33412980  0.99434646    -0.78700
Zr160      Zr  0.08097560  0.20542803  0.50099156     2.70100
O161        O  0.17416595  0.21183821  0.50207148    -0.79900
O162        O  0.09797014  0.15833871  0.00768509    -0.99000
Zr163      Zr  0.00335069  0.24622477  0.08161618     2.21500
Zr164      Zr  0.99893395  0.24113890  0.41550089     2.11100
O165        O  0.07778019  0.24383237  0.45488584    -2.47700
O166        O  0.08056084  0.24746414  0.03969085    -0.79700
O167        O  0.99551660  0.28174833  0.45436860    -0.71900
O168        O  0.00634812  0.20524384  0.04327717    -2.32900
O169        O  0.99847917  0.28461589  0.03497638    -2.29100
O170        O  0.00352442  0.20236379  0.46147443    -0.73700
H171        H  0.89118950  0.23790250  0.43962429     0.78300
H172        H  0.00804521  0.18967962  0.06181022     0.79400
H173        H  0.10737825  0.24427994  0.43620128     0.81600
H174        H  0.99943820  0.30130342  0.05017203     0.79300
H175        H  0.96364282  0.14788192  0.00935891     0.42300
H176        H  0.06393742  0.14955228  0.48550236     0.41300
H177        H  0.19072988  0.20095431  0.01318776     0.40900
H178        H  0.17761842  0.30262677  0.48980033     0.38900
H179        H  0.03531056  0.33775064  0.50432731     0.42000
H180        H  0.89669737  0.33639260  0.00519661     0.36800
H181        H  0.81840537  0.26812272  0.96875898     0.42900
H182        H  0.82314456  0.18375120  0.50905438     0.39300
H183        H  0.17898636  0.27379457  0.51058558     0.44200
H184        H  0.84392059  0.32094981  0.01084642     0.43000
H185        H  0.82803090  0.20961254  0.03914358     0.43100
H186        H  0.12391009  0.15297154  0.48985948     0.43500
C187        C  0.25890944  0.12863923  0.20638142     0.45300
H188        H  0.25437743  0.13123143  0.17174453    -0.03700
C189        C  0.27022581  0.12440535  0.28709038     0.45400
H190        H  0.27573332  0.12265175  0.32183721    -0.03700
C191        C  0.29531097  0.14996315  0.22453717    -0.17400
C192        C  0.20773152  0.13246892  0.23064567    -0.17100
C193        C  0.28310598  0.10132428  0.22003809    -0.17500
C194        C  0.30186520  0.14745477  0.26718420    -0.17500
C195        C  0.21379443  0.13085228  0.27419003    -0.17100
C196        C  0.28925678  0.09927268  0.26342871    -0.17400
C197        C  0.75740812  0.12080330  0.20837106     0.45300
H198        H  0.76281083  0.12265867  0.17397439    -0.03700
C199        C  0.74739675  0.11261805  0.28834666     0.45400
H200        H  0.74469733  0.10850022  0.32269204    -0.03700
C201        C  0.71758459  0.13990339  0.22823139    -0.17400
C202        C  0.73670966  0.09232245  0.21919058    -0.17100
C203        C  0.80750734  0.12676875  0.23302000    -0.17500
C204        C  0.71202482  0.13522942  0.27158087    -0.17500
C205        C  0.73155676  0.08790239  0.26208949    -0.17100
C206        C  0.80233843  0.12254898  0.27603068    -0.17400
C207        C  0.26088274  0.36962852  0.20743588     0.45300
H208        H  0.26549498  0.37304380  0.17282651    -0.03700
C209        C  0.25032456  0.36205929  0.28769146     0.45400
H210        H  0.24549653  0.35909490  0.32229170    -0.03700
C211        C  0.29529672  0.34707026  0.22509388    -0.17400
C212        C  0.27722057  0.39444513  0.23269641    -0.17100
C213        C  0.20567115  0.36061480  0.22010905    -0.17500
C214        C  0.29015101  0.34306841  0.26794148    -0.17500
C215        C  0.27116246  0.39058433  0.27583857    -0.17100
C216        C  0.20012659  0.35640032  0.26315083    -0.17400
C217        C  0.76755066  0.37239868  0.28542694     0.45300
H218        H  0.77075384  0.37249447  0.32026178    -0.03700
C219        C  0.76213686  0.37731370  0.20495286     0.45400
H220        H  0.75600476  0.37897569  0.17080097    -0.03700
C221        C  0.73300331  0.35047634  0.26605378    -0.17400
C222        C  0.74424777  0.39961559  0.27081184    -0.17100
C223        C  0.81954806  0.36668704  0.26384310    -0.17500
C224        C  0.72747849  0.35468141  0.22326440    -0.17500
C225        C  0.74282571  0.40256350  0.22758006    -0.17100
C226        C  0.81806680  0.36987776  0.21983110    -0.17400
C227        C  0.19847292  0.33127474  0.15771772    -0.09300
C228        C  0.17298371  0.34759177  0.18722716     0.06900
C229        C  0.11854883  0.34895776  0.18581762    -0.03000
C230        C  0.09119971  0.33265739  0.15741388    -0.07500
C231        C  0.11746446  0.31526581  0.13004560     0.06000
C232        C  0.17155089  0.31523957  0.12977740    -0.02500
Br233      Br  0.21119958  0.29205515  0.09414164    -0.02200
H234        H  0.23989899  0.32939097  0.15767300     0.09900
H235        H  0.04954607  0.33389241  0.15615567     0.08000
Br236      Br  0.08022733  0.37349044  0.21996124    -0.02600
C237        C  0.11143067  0.30101106  0.31044148    -0.09300
C238        C  0.09723945  0.31299684  0.34855020     0.06900
C239        C  0.10873648  0.34071062  0.35349301    -0.03000
C240        C  0.13758248  0.35480117  0.32261297    -0.07500
C241        C  0.15669537  0.34209677  0.28643703     0.06000
C242        C  0.14177616  0.31478872  0.28012561    -0.02500
Br243      Br  0.16894147  0.29218665  0.23720836    -0.02200
H244        H  0.10320605  0.27982470  0.30592856     0.09900
H245        H  0.14799147  0.37561404  0.32823765     0.08000
Br246      Br  0.08702885  0.36085145  0.40163423    -0.02600
C247        C  0.20229791  0.16352095  0.33279963    -0.09300
C248        C  0.17938321  0.14479847  0.30555227     0.06900
C249        C  0.12519435  0.14137848  0.30782647    -0.03000
C250        C  0.09539722  0.15796962  0.33433333    -0.07500
C251        C  0.11907877  0.17735136  0.36004455     0.06000
C252        C  0.17310857  0.17962853  0.35938757    -0.02500
Br253      Br  0.20936728  0.20513084  0.39366170    -0.02200
H254        H  0.24352367  0.16626186  0.33331540     0.09900
H255        H  0.05399700  0.15507695  0.33597415     0.08000
Br256      Br  0.09097803  0.11311114  0.27807598    -0.02600
C257        C  0.14534742  0.17096222  0.21803240    -0.09300
C258        C  0.16410542  0.14549119  0.20656714     0.06900
C259        C  0.14973729  0.13556870  0.16666317    -0.03000
C260        C  0.12422133  0.15224139  0.13741553    -0.07500
C261        C  0.11000492  0.17875943  0.14733843     0.06000
C262        C  0.11763636  0.18727367  0.18942421    -0.02500
Br263      Br  0.09864123  0.22234203  0.20880140    -0.02200
H264        H  0.15669492  0.17976811  0.24757721     0.09900
H265        H  0.11622602  0.14445125  0.10631599     0.08000
Br266      Br  0.16550273  0.09947205  0.14983481    -0.02600
C267        C  0.87579060  0.13146507  0.17789652    -0.09300
C268        C  0.84872086  0.14347481  0.21113424     0.06900
C269        C  0.85420975  0.17179837  0.21603282    -0.03000
C270        C  0.88386522  0.18716677  0.18696551    -0.07500
C271        C  0.90628483  0.17534629  0.15133940     0.06000
C272        C  0.90419257  0.14693467  0.14833771    -0.02500
Br273      Br  0.93862611  0.12789255  0.10422916    -0.02200
H274        H  0.87237263  0.10992778  0.17347328     0.09900
H275        H  0.88480210  0.20888538  0.18985607     0.08000
Br276      Br  0.81394462  0.19211729  0.25491526    -0.02600
C277        C  0.91594756  0.15551359  0.33516475    -0.09300
C278        C  0.88910424  0.17064527  0.36529347     0.06900
C279        C  0.83531554  0.16759548  0.36849082    -0.03000
C280        C  0.80915138  0.15098575  0.34066270    -0.07500
C281        C  0.83484881  0.13669658  0.30868870     0.06000
C282        C  0.88947711  0.13805149  0.30781485    -0.02500
Br283      Br  0.93008901  0.11436614  0.27404829    -0.02200
H284        H  0.95767593  0.15653695  0.33393791     0.09900
H285        H  0.76788367  0.15026273  0.34380380     0.08000
Br286      Br  0.79452284  0.18680759  0.40892367    -0.02600
C287        C  0.87771665  0.30259179  0.31544876    -0.09300
C288        C  0.89897209  0.31297028  0.35259558     0.06900
C289        C  0.89815147  0.34130905  0.35761941    -0.03000
C290        C  0.87644737  0.35824808  0.32637574    -0.07500
C291        C  0.85355596  0.34792976  0.28977890     0.06000
C292        C  0.85377772  0.31938635  0.28511885    -0.02500
Br293      Br  0.81896023  0.30116002  0.24030821    -0.02200
H294        H  0.87697048  0.28098923  0.31109078     0.09900
H295        H  0.87513457  0.37973777  0.33175655     0.08000
Br296      Br  0.92566381  0.35846024  0.40663722    -0.02600
C297        C  0.86998355  0.33875985  0.11908599    -0.09300
C298        C  0.90429324  0.31945701  0.13533701     0.06900
C299        C  0.92210189  0.32315965  0.17716330    -0.03000
C300        C  0.90097220  0.34374652  0.20200535    -0.07500
C301        C  0.85779433  0.35881896  0.18839406     0.06000
C302        C  0.84904193  0.35886655  0.14413005    -0.02500
Br303      Br  0.82147523  0.38854608  0.11211615    -0.02200
H304        H  0.85997144  0.33890671  0.08592285     0.09900
H305        H  0.91729982  0.34666020  0.23278406     0.08000
Br306      Br  0.97259774  0.30049397  0.20402859    -0.02600
C307        C  0.72284328  0.05045737  0.31519734    -0.09300
C308        C  0.69938979  0.06610086  0.28326470     0.06900
C309        C  0.64480968  0.06418229  0.27903763    -0.03000
C310        C  0.61565735  0.04850013  0.30796788    -0.07500
C311        C  0.63890162  0.03560193  0.34272526     0.06000
C312        C  0.69335553  0.03528512  0.34453799    -0.02500
Br313      Br  0.72939749  0.01445108  0.38642203    -0.02200
H314        H  0.76438731  0.05125156  0.31880669     0.09900
H315        H  0.57391746  0.04900261  0.30602795     0.08000
Br316      Br  0.60520931  0.08727593  0.24260172    -0.02600
C317        C  0.67613827  0.09262573  0.15757954    -0.09300
C318        C  0.70649660  0.07742677  0.18611184     0.06900
C319        C  0.70419429  0.04906540  0.18355632    -0.03000
C320        C  0.66914438  0.03675759  0.15584402    -0.07500
C321        C  0.63760711  0.05232260  0.12900372     0.06000
C322        C  0.64203065  0.08047316  0.12966175    -0.02500
Br323      Br  0.59954879  0.10348302  0.09520815    -0.02200
H324        H  0.67649594  0.11429434  0.15801024     0.09900
H325        H  0.66774366  0.01497557  0.15421579     0.08000
Br326      Br  0.75168158  0.02644738  0.21336673    -0.02600
C327        C  0.35065497  0.04297663  0.16308365    -0.09300
C328        C  0.37730923  0.05723394  0.13088195     0.06900
C329        C  0.36706978  0.08489574  0.12528071    -0.03000
C330        C  0.33516682  0.09809119  0.15367341    -0.07500
C331        C  0.31065864  0.08451183  0.18769891     0.06000
C332        C  0.31606684  0.05617478  0.19032881    -0.02500
Br333      Br  0.27269338  0.03419202  0.22610358    -0.02200
H334        H  0.35480228  0.02130941  0.16571994     0.09900
H335        H  0.33087429  0.11947057  0.14894921     0.08000
Br336      Br  0.39570266  0.10640432  0.07978086    -0.02600
C337        C  0.29523953  0.06684207  0.32351046    -0.09300
C338        C  0.31988375  0.07874639  0.28822053     0.06900
C339        C  0.37363177  0.07397629  0.28288537    -0.03000
C340        C  0.40063466  0.05819998  0.31262309    -0.07500
C341        C  0.37615651  0.04762105  0.34884550     0.06000
C342        C  0.32252415  0.05160083  0.35352960    -0.02500
Br343      Br  0.28402033  0.03661219  0.40024326    -0.02200
H344        H  0.25439267  0.07022357  0.32856527     0.09900
H345        H  0.44190118  0.05562655  0.30878159     0.08000
Br346      Br  0.41553229  0.09045487  0.23974732    -0.02600
C347        C  0.68950817  0.44745790  0.13967012    -0.09300
C348        C  0.63613334  0.44284312  0.14378393     0.06900
C349        C  0.61792066  0.42903721  0.18013005    -0.03000
C350        C  0.65306383  0.41841652  0.20957647    -0.07500
C351        C  0.70670360  0.42091877  0.20364440     0.06000
C352        C  0.72444578  0.43706729  0.16952649    -0.02500
Br353      Br  0.79559417  0.44720258  0.16440365    -0.02200
H354        H  0.70411570  0.45928409  0.11312054     0.09900
H355        H  0.63828604  0.40736523  0.23650341     0.08000
Br356      Br  0.54589940  0.42199159  0.18915567    -0.02600
C357        C  0.66900492  0.45226220  0.33416933    -0.09300
C358        C  0.63432156  0.43563627  0.35697082     0.06900
C359        C  0.63458891  0.40782906  0.35003921    -0.03000
C360        C  0.67034969  0.39687906  0.32208097    -0.07500
C361        C  0.70647081  0.41313196  0.29983949     0.06000
C362        C  0.70507644  0.44124104  0.30592323    -0.02500
Br363      Br  0.75339361  0.46517225  0.27876160    -0.02200
H364        H  0.66888508  0.47379040  0.33915566     0.09900
H365        H  0.66907120  0.37540416  0.31754461     0.08000
Br366      Br  0.58515461  0.38411205  0.37676511    -0.02600
C367        C  0.33793819  0.44750681  0.33531715    -0.09300
C368        C  0.36888020  0.43249305  0.36326337     0.06900
C369        C  0.36329772  0.40441695  0.36541222    -0.03000
C370        C  0.32909260  0.39167444  0.33852208    -0.07500
C371        C  0.29993920  0.40620416  0.30842138     0.06000
C372        C  0.30265278  0.43460625  0.30867019    -0.02500
Br373      Br  0.25535926  0.45658751  0.27726274    -0.02200
H374        H  0.33985792  0.46931759  0.33537805     0.09900
H375        H  0.32758774  0.37005706  0.34044788     0.08000
Br376      Br  0.40358829  0.38218947  0.40290975    -0.02600
C377        C  0.39403387  0.43230182  0.18407096    -0.09300
C378        C  0.37122961  0.44447627  0.14865777     0.06900
C379        C  0.31684604  0.44419579  0.14608473    -0.03000
C380        C  0.28709028  0.42974237  0.17613147    -0.07500
C381        C  0.31002817  0.41547310  0.20985966     0.06000
C382        C  0.36460326  0.41758546  0.21401316    -0.02500
Br383      Br  0.40410428  0.39766496  0.25449828    -0.02200
H384        H  0.43558810  0.43251240  0.18681462     0.09900
H385        H  0.24563066  0.42867439  0.17206452     0.08000
Br386      Br  0.28116558  0.46377792  0.10256969    -0.02600
C387        C  0.34428517  0.30084047  0.35762527    -0.09300
C388        C  0.39714691  0.30432346  0.35113564     0.06900
C389        C  0.41535586  0.31810767  0.31506397    -0.03000
C390        C  0.37988743  0.32966012  0.28731963    -0.07500
C391        C  0.32633613  0.32717572  0.29453593     0.06000
C392        C  0.30895537  0.31177715  0.32968789    -0.02500
Br393      Br  0.23864937  0.30310309  0.34166741    -0.02200
H394        H  0.33032490  0.28941925  0.38488623     0.09900
H395        H  0.39462129  0.34128524  0.26084368     0.08000
Br396      Br  0.48759160  0.32336131  0.30393014    -0.02600
C397        C  0.36244842  0.35008791  0.16996402    -0.09300
C398        C  0.33279053  0.33364723  0.19725880     0.06900
C399        C  0.33794258  0.30538772  0.19540731    -0.03000
C400        C  0.37078189  0.29436994  0.16545732    -0.07500
C401        C  0.39863445  0.31099097  0.13734624     0.06000
C402        C  0.39579221  0.33904263  0.14058684    -0.02500
Br403      Br  0.43859811  0.36305146  0.10753646    -0.02200
H404        H  0.35971381  0.37171613  0.17121825     0.09900
H405        H  0.37327857  0.27264412  0.16310914     0.08000
Br406      Br  0.29965563  0.28030601  0.22987448    -0.02600
C407        C  0.64126350  0.29981260  0.31338346    -0.09300
C408        C  0.65525988  0.30187440  0.35600880     0.06900
C409        C  0.70440906  0.31259524  0.36576900    -0.03000
C410        C  0.73334598  0.32473583  0.33401640    -0.07500
C411        C  0.71445695  0.32700168  0.29268672     0.06000
C412        C  0.67434453  0.30921897  0.28167998    -0.02500
Br413      Br  0.68306232  0.28357292  0.23743458    -0.02200
H414        H  0.60799484  0.28790086  0.30448431     0.09900
H415        H  0.77036182  0.33289012  0.34267370     0.08000
Br416      Br  0.73647429  0.31201680  0.42050497    -0.02600
C417        C  0.61260119  0.32363488  0.16795722    -0.09300
C418        C  0.63838355  0.30946278  0.13647405     0.06900
C419        C  0.69267162  0.31058280  0.13360706    -0.03000
C420        C  0.72026290  0.32576718  0.16213689    -0.07500
C421        C  0.69495100  0.33937403  0.19442691     0.06000
C422        C  0.64042163  0.33878128  0.19690514    -0.02500
Br423      Br  0.60154067  0.35644894  0.23983169    -0.02200
H424        H  0.57081441  0.32312235  0.16974138     0.09900
H425        H  0.76196772  0.32614896  0.16004889     0.08000
Br426      Br  0.73201512  0.29050387  0.09344603    -0.02600
C427        C  0.63337332  0.15872778  0.36616040    -0.09300
C428        C  0.63637857  0.18642675  0.36074485     0.06900
C429        C  0.66336899  0.19749112  0.32619626    -0.03000
C430        C  0.68592285  0.18048186  0.29684132    -0.07500
C431        C  0.68262776  0.15228690  0.30162682     0.06000
C432        C  0.65659077  0.14164813  0.33787946    -0.02500
Br433      Br  0.64953301  0.10492717  0.35484201    -0.02200
H434        H  0.61256867  0.15022595  0.39310247     0.09900
H435        H  0.70703491  0.18945820  0.27070903     0.08000
Br436      Br  0.67507653  0.23521713  0.32025367    -0.02600
C437        C  0.63523631  0.16524658  0.21258480    -0.09300
C438        C  0.68689295  0.15932110  0.20141641     0.06900
C439        C  0.70591229  0.17041568  0.16250185    -0.03000
C440        C  0.67340900  0.18434391  0.13579303    -0.07500
C441        C  0.62250458  0.18935630  0.14654611     0.06000
C442        C  0.60429733  0.18168887  0.18686381    -0.02500
Br443      Br  0.53942066  0.19357562  0.20909478    -0.02200
H444        H  0.61804756  0.15692478  0.24107470     0.09900
H445        H  0.68852319  0.19181137  0.10575306     0.08000
Br446      Br  0.77400321  0.16942110  0.13929635    -0.02600
C447        C  0.37851382  0.14965150  0.31337317    -0.09300
C448        C  0.33873475  0.16332774  0.29233785     0.06900
C449        C  0.33149553  0.19100529  0.29958767    -0.03000
C450        C  0.36293858  0.20425495  0.32843655    -0.07500
C451        C  0.40127281  0.19026235  0.35054352     0.06000
C452        C  0.40995230  0.16292819  0.34219974    -0.02500
Br453      Br  0.46362920  0.14293888  0.36980906    -0.02200
H454        H  0.38421493  0.12839544  0.30831927     0.09900
H455        H  0.35578278  0.22525266  0.33521418     0.08000
Br456      Br  0.27533951  0.21093470  0.27583284    -0.02600
C457        C  0.34250461  0.20083030  0.14319028    -0.09300
C458        C  0.39227287  0.19141837  0.13665916     0.06900
C459        C  0.41084277  0.16923053  0.15957202    -0.03000
C460        C  0.38002061  0.15788682  0.19129211    -0.07500
C461        C  0.32897975  0.16643840  0.19690414     0.06000
C462        C  0.31000126  0.18778436  0.17170846    -0.02500
Br463      Br  0.24056043  0.19975031  0.17172735    -0.02200
H464        H  0.32811412  0.21762446  0.12442100     0.09900
H465        H  0.39430402  0.14092619  0.20916508     0.08000
Br466      Br  0.47355044  0.15142345  0.14397577    -0.02600
O467        O  0.41026884  0.19836482  0.56481331    -0.75400
O468        O  0.45779314  0.22042889  0.61438381    -0.54300
C469        C  0.42331385  0.20353986  0.60292320     0.78300
O470        O  0.61585337  0.19553139  0.93165181    -0.60000
O471        O  0.57665648  0.22071361  0.88014825    -0.53000
C472        C  0.60794782  0.20254542  0.89296857     0.70300
O473        O  0.60182648  0.19491286  0.57440409    -0.74600
O474        O  0.56278492  0.22218701  0.62189311    -0.55100
C475        C  0.59264491  0.20285153  0.61231510     0.76300
O476        O  0.41301741  0.20000819  0.92317357    -0.59700
O477        O  0.46406414  0.22246395  0.87524188    -0.52800
C478        C  0.42818904  0.20563941  0.88524827     0.72900
Zr479      Zr  0.43297020  0.21334028  0.49405758     2.54700
O480        O  0.40970467  0.16574454  0.49369387    -0.80300
O481        O  0.34039351  0.21941036  0.99222114    -0.93700
Zr482      Zr  0.58473592  0.20595456  0.50049143     2.64700
O483        O  0.56882389  0.15758933  0.50046364    -0.98700
O484        O  0.67648636  0.19574467  0.00609927    -0.80700
O485        O  0.50661851  0.20932720  0.53799613    -0.84100
O486        O  0.51161332  0.20878617  0.95740429    -2.18800
O487        O  0.41836157  0.30058897  0.92432354    -0.67500
O488        O  0.46894547  0.27966977  0.87576069    -0.52000
C489        C  0.43150086  0.29487596  0.88633692     0.71300
O490        O  0.62155445  0.30100014  0.56473322    -0.60400
O491        O  0.57136340  0.27962144  0.61437392    -0.52400
C492        C  0.60769767  0.29590442  0.60283341     0.73100
O493        O  0.62977579  0.29781400  0.92846990    -0.71800
O494        O  0.58299202  0.27571937  0.87931261    -0.50400
C495        C  0.61970097  0.29143600  0.89044271     0.74500
O496        O  0.42087755  0.30631074  0.56367629    -0.67100
O497        O  0.45918606  0.27966475  0.61370128    -0.54300
C498        C  0.42896921  0.29857564  0.60206301     0.72900
Zr499      Zr  0.44950511  0.29366377  0.99540516     2.77500
O500        O  0.47194464  0.34031169  0.48556339    -0.97800
O501        O  0.36079602  0.30956893  0.99710092    -0.78700
Zr502      Zr  0.60077988  0.28514677  0.99792890     2.70100
O503        O  0.62702925  0.33231454  0.99596343    -0.79900
O504        O  0.68903486  0.27040151  0.50176573    -0.99000
Zr505      Zr  0.51386582  0.25029780  0.57566753     2.21500
Zr506      Zr  0.52010658  0.24971560  0.91786100     2.11100
O507        O  0.52650750  0.29058743  0.95561879    -2.47700
O508        O  0.52290769  0.29069821  0.53559796    -0.79700
O509        O  0.44091680  0.25383980  0.95514573    -0.71900
O510        O  0.59319672  0.24605937  0.53908341    -2.32900
O511        O  0.43728653  0.25318006  0.53446310    -2.29100
O512        O  0.59576010  0.24527677  0.95904330    -0.73700
H513        H  0.51043335  0.19327370  0.93936100     0.78300
H514        H  0.62217307  0.24516085  0.55815169     0.79400
H515        H  0.52986294  0.30597737  0.93672920     0.81600
H516        H  0.40681797  0.25429016  0.55205190     0.79300
H517        H  0.69221186  0.21353954  0.51577256     0.42300
H518        H  0.69691928  0.26179177  0.97410494     0.41300
H519        H  0.58893058  0.34200201  0.48852942     0.40900
H520        H  0.44592683  0.35096076  0.99420328     0.38900
H521        H  0.33971522  0.29300590  0.00088416     0.42000
H522        H  0.32355611  0.20743333  0.49074309     0.36800
H523        H  0.43948517  0.15680415  0.48020910     0.42900
H524        H  0.59989375  0.14939956  0.01037857     0.39300
H525        H  0.50096496  0.34351001  0.01079385     0.44200
H526        H  0.33655784  0.23377092  0.46491914     0.43000
H527        H  0.54058620  0.15472856  0.52126652     0.43100
H528        H  0.71057646  0.28674658  0.00174234     0.43500
O529        O  0.38950747  0.44859762  0.57385391    -0.75400
O530        O  0.44298705  0.46907494  0.62081414    -0.54300
C531        C  0.40278514  0.45481544  0.61175246     0.78300
O532        O  0.60930465  0.44114504  0.92864567    -0.60000
O533        O  0.56087420  0.46111879  0.87681007    -0.53000
C534        C  0.59847516  0.44634459  0.88956304     0.70300
O535        O  0.61029096  0.44444313  0.57099069    -0.74600
O536        O  0.56383424  0.46814770  0.61930338    -0.55100
C537        C  0.60073020  0.45213660  0.60905104     0.76300
O538        O  0.39295992  0.44095790  0.93401264    -0.59700
O539        O  0.43803446  0.46137319  0.88004937    -0.52800
C540        C  0.40220652  0.44576647  0.89463310     0.72900
Zr541      Zr  0.42343949  0.45474192  0.50166450     2.54700
O542        O  0.42540408  0.40593053  0.51004999    -0.80300
O543        O  0.33165359  0.44961225  0.99789302    -0.93700
Zr544      Zr  0.57511054  0.45062609  0.49914617     2.64700
O545        O  0.55728919  0.40237533  0.50031381    -0.98700
O546        O  0.66834342  0.44136258  0.99987355    -0.80700
O547        O  0.50005982  0.45310420  0.54271181    -0.84100
O548        O  0.49951559  0.45037990  0.95901097    -2.18800
O549        O  0.39652715  0.04159804  0.92091630    -0.67500
O550        O  0.44341974  0.01856137  0.87228432    -0.52000
C551        C  0.40709366  0.03487844  0.88271294     0.71300
O552        O  0.61382231  0.04424903  0.55830921    -0.60400
O553        O  0.56698116  0.02468365  0.61216120    -0.52400
C554        C  0.60368203  0.03991751  0.59776738     0.73100
O555        O  0.61735068  0.03314022  0.91651570    -0.71800
O556        O  0.56215522  0.01400783  0.86955789    -0.50400
C557        C  0.60371655  0.02704132  0.87855310     0.74500
O558        O  0.40105783  0.04783573  0.56106320    -0.67100
O559        O  0.44267645  0.02512160  0.61395760    -0.54300
C560        C  0.40899711  0.04229968  0.60031666     0.72900
Zr561      Zr  0.43049318  0.03385438  0.99188140     2.77500
O562        O  0.44335221  0.08191894  0.48521541    -0.97800
O563        O  0.33729701  0.03709079  0.49590452    -0.78700
Zr564      Zr  0.58181517  0.03059290  0.98912847     2.70100
O565        O  0.57340379  0.07901105  0.97789947    -0.79900
O566        O  0.67564511  0.03601510  0.49560712    -0.99000
Zr567      Zr  0.50422821  0.49554580  0.57764951     2.21500
Zr568      Zr  0.50124970  0.48983700  0.91403068     2.11100
O569        O  0.50520816  0.03177091  0.94850875    -2.47700
O570        O  0.50770144  0.03431743  0.53275942    -0.79700
O571        O  0.42593971  0.49250580  0.95709367    -0.71900
O572        O  0.57983146  0.49231662  0.53413477    -2.32900
O573        O  0.42706621  0.49632911  0.53683303    -2.29100
O574        O  0.57904371  0.48943727  0.95403685    -0.73700
H575        H  0.49799305  0.43416605  0.94253944     0.78300
H576        H  0.61078871  0.49249276  0.55094511     0.79400
H577        H  0.50635414  0.04646806  0.92817436     0.81600
H578        H  0.39673774  0.49775087  0.55445330     0.79300
H579        H  0.68367872  0.45708444  0.50871753     0.42300
H580        H  0.68882416  0.01837332  0.98162133     0.41300
H581        H  0.55273502  0.08531569  0.49909684     0.40900
H582        H  0.46050559  0.08502248  0.95663570     0.38900
H583        H  0.32432262  0.02116030  0.00546469     0.42000
H584        H  0.31835728  0.47068798  0.51107474     0.36800
H585        H  0.38873698  0.40054556  0.51337017     0.42900
H586        H  0.55829917  0.39656175  0.97677122     0.39300
H587        H  0.40890756  0.08976260  0.98116992     0.42700
H588        H  0.31778466  0.43905474  0.51309086     0.43000
H589        H  0.57635325  0.39538210  0.52517199     0.43100
H590        H  0.68475471  0.04965646  0.97434751     0.43500
O591        O  0.90692608  0.29908403  0.56611790    -0.75400
O592        O  0.94916087  0.27701376  0.61885280    -0.54300
C593        C  0.91961224  0.29595868  0.60525035     0.78300
O594        O  0.90821063  0.18344188  0.93590219    -0.60000
O595        O  0.94578962  0.20744442  0.88162126    -0.53000
C596        C  0.91679655  0.18824984  0.89635633     0.70300
O597        O  0.91481543  0.18459698  0.57728651    -0.74600
O598        O  0.95323755  0.21275883  0.62422738    -0.55100
C599        C  0.92671036  0.19151622  0.61525468     0.76300
O600        O  0.91173443  0.30100558  0.92622329    -0.59700
O601        O  0.94409353  0.27302907  0.87628789    -0.52800
C602        C  0.91991672  0.29455974  0.88742108     0.72900
Zr603      Zr  0.91946197  0.27967246  0.49614742     2.54700
O604        O  0.82985834  0.26458783  0.49554432    -0.80300
O605        O  0.87403572  0.32294849  0.99165532    -0.93700
Zr606      Zr  0.92778381  0.20125585  0.50415425     2.64700
O607        O  0.83400466  0.20290756  0.50815201    -0.98700
O608        O  0.92693471  0.15305949  0.00659864    -0.80700
O609        O  0.92279491  0.24180695  0.54298633    -0.84100
O610        O  0.92204732  0.23987194  0.95808707    -2.18800
O611        O  0.08550633  0.30269864  0.92058919    -0.67500
O612        O  0.04991678  0.27392894  0.87332498    -0.52000
C613        C  0.07562181  0.29545198  0.88257537     0.71300
O614        O  0.10033905  0.19025082  0.57396571    -0.60400
O615        O  0.05787031  0.21551980  0.62240592    -0.52400
C616        C  0.08840758  0.19621690  0.61248612     0.73100
O617        O  0.10130728  0.18883168  0.93178016    -0.71800
O618        O  0.05560737  0.20989047  0.87926426    -0.50400
C619        C  0.08911974  0.19267335  0.89271053     0.74500
O620        O  0.09963127  0.30108774  0.56177912    -0.67100
O621        O  0.05795203  0.27842358  0.61537187    -0.54300
C622        C  0.08960015  0.29657642  0.60109365     0.72900
Zr623      Zr  0.07373875  0.28516091  0.99254956     2.77500
O624        O  0.16715882  0.28225989  0.98463284    -0.97800
O625        O  0.07123185  0.33342844  0.49616843    -0.78700
Zr626      Zr  0.08221596  0.20660002  0.00180562     2.70100
O627        O  0.17400521  0.21740615  0.00183026    -0.79900
O628        O  0.09088766  0.15664948  0.50449770    -0.99000
Zr629      Zr  0.00257263  0.24520924  0.58092079     2.21500
Zr630      Zr  0.99923846  0.24139953  0.91594462     2.11100
O631        O  0.07826250  0.24442408  0.95473868    -2.47700
O632        O  0.07989779  0.24628128  0.53916309    -0.79700
O633        O  0.99568190  0.28221703  0.95439032    -0.71900
O634        O  0.00531638  0.20414642  0.54263509    -2.32900
O635        O  0.99748466  0.28384734  0.53497101    -2.29100
O636        O  0.00462391  0.20307571  0.96251002    -0.73700
H637        H  0.89191284  0.23842634  0.94037563     0.78300
H638        H  0.00714740  0.18855739  0.56110853     0.79400
H639        H  0.10766769  0.24474520  0.93585394     0.81600
H640        H  0.99793418  0.30033907  0.55070843     0.79300
H641        H  0.95780110  0.14632079  0.49887013     0.42300
H642        H  0.07317172  0.14999357  0.98801122     0.41300
H643        H  0.18825713  0.19337890  0.50449194     0.40900
H644        H  0.17361781  0.28356131  0.95380847     0.38900
H645        H  0.03694802  0.33905325  0.99276681     0.42000
H646        H  0.90487307  0.33634254  0.50686837     0.36800
H647        H  0.81861695  0.26539401  0.52543756     0.42900
H648        H  0.82329435  0.18573444  0.00764016     0.39300
H649        H  0.18036559  0.29950306  0.99572502     0.44200
H650        H  0.84935882  0.32337319  0.50832595     0.43000
H651        H  0.82647762  0.20946281  0.53691236     0.43100
H652        H  0.13227516  0.15562788  0.99454860     0.43500
C653        C  0.26007826  0.12928038  0.70730873     0.45300
H654        H  0.25599845  0.13190680  0.67264167    -0.03700
C655        C  0.27052504  0.12500523  0.78810024     0.45400
H656        H  0.27563159  0.12320078  0.82288942    -0.03700
C657        C  0.29687980  0.15036901  0.72566020    -0.17400
C658        C  0.20874760  0.13345529  0.73127678    -0.17100
C659        C  0.28336759  0.10174893  0.72107811    -0.17500
C660        C  0.30287243  0.14792096  0.76836983    -0.17500
C661        C  0.21433447  0.13172229  0.77479185    -0.17100
C662        C  0.28899441  0.09971855  0.76447800    -0.17400
C663        C  0.75670804  0.12196836  0.70881678     0.45300
H664        H  0.76190868  0.12405786  0.67437490    -0.03700
C665        C  0.74673494  0.11359926  0.78876467     0.45400
H666        H  0.74421043  0.10937773  0.82306178    -0.03700
C667        C  0.71761304  0.14136827  0.72899435    -0.17400
C668        C  0.73501725  0.09369980  0.71944681    -0.17100
C669        C  0.80723535  0.12712642  0.73343685    -0.17500
C670        C  0.71197402  0.13651645  0.77229889    -0.17500
C671        C  0.72993531  0.08917611  0.76231888    -0.17100
C672        C  0.80193607  0.12303004  0.77650514    -0.17400
C673        C  0.26305244  0.36875867  0.70698119     0.45300
H674        H  0.26779079  0.37198297  0.67233665    -0.03700
C675        C  0.25211960  0.36148948  0.78727271     0.45400
H676        H  0.24706967  0.35871724  0.82187913    -0.03700
C677        C  0.29785845  0.34650736  0.72497613    -0.17400
C678        C  0.27879284  0.39373598  0.73219751    -0.17100
C679        C  0.20790287  0.35959428  0.71952128    -0.17500
C680        C  0.29228827  0.34253672  0.76783425    -0.17500
C681        C  0.27273505  0.39004016  0.77534521    -0.17100
C682        C  0.20215035  0.35557118  0.76256647    -0.17400
C683        C  0.76551231  0.37152792  0.78553528     0.45300
H684        H  0.76863104  0.37154176  0.82040111    -0.03700
C685        C  0.76020929  0.37636555  0.70505399     0.45400
H686        H  0.75406869  0.37802825  0.67090260    -0.03700
C687        C  0.73045938  0.34986340  0.76615507    -0.17400
C688        C  0.74265190  0.39885241  0.77085665    -0.17100
C689        C  0.81738905  0.36537057  0.76397358    -0.17500
C690        C  0.72508449  0.35402077  0.72338705    -0.17500
C691        C  0.74153389  0.40180852  0.72758153    -0.17100
C692        C  0.81581683  0.36832446  0.71991172    -0.17400
C693        C  0.20007644  0.32942107  0.65808990    -0.09300
C694        C  0.17507218  0.34645624  0.68680527     0.06900
C695        C  0.12067785  0.34809245  0.68546763    -0.03000
C696        C  0.09274899  0.33151633  0.65778102    -0.07500
C697        C  0.11836293  0.31327278  0.63135953     0.06000
C698        C  0.17251560  0.31261036  0.63155777    -0.02500
Br699      Br  0.21116453  0.28691777  0.59975550    -0.02200
H700        H  0.24149695  0.32731793  0.65827520     0.09900
H701        H  0.05112947  0.33311356  0.65648222     0.08000
Br702      Br  0.08328746  0.37339493  0.71889894    -0.02600
C703        C  0.11316453  0.30026465  0.80986977    -0.09300
C704        C  0.09766498  0.31258272  0.84738021     0.06900
C705        C  0.10877471  0.34038260  0.85185813    -0.03000
C706        C  0.13834433  0.35427759  0.82121113    -0.07500
C707        C  0.15851587  0.34130844  0.78568082     0.06000
C708        C  0.14411289  0.31388960  0.77977068    -0.02500
Br709      Br  0.17274617  0.29105958  0.73784929    -0.02200
H710        H  0.10544977  0.27899028  0.80575759     0.09900
H711        H  0.14839443  0.37517115  0.82654042     0.08000
Br712      Br  0.08589078  0.36087681  0.89924204    -0.02600
C713        C  0.20221473  0.16447963  0.83287385    -0.09300
C714        C  0.17958162  0.14551460  0.80595485     0.06900
C715        C  0.12550561  0.14159299  0.80860636    -0.03000
C716        C  0.09557155  0.15766888  0.83578309    -0.07500
C717        C  0.11904172  0.17708905  0.86153976     0.06000
C718        C  0.17291934  0.18007797  0.86005890    -0.02500
Br719      Br  0.20885408  0.20593652  0.89387332    -0.02200
H720        H  0.24331901  0.16774700  0.83271330     0.09900
H721        H  0.05427914  0.15442244  0.83776951     0.08000
Br722      Br  0.09157454  0.11347042  0.77830153    -0.02600
C723        C  0.14554141  0.17165035  0.71819506    -0.09300
C724        C  0.16509486  0.14626933  0.70697529     0.06900
C725        C  0.15128020  0.13611407  0.66712622    -0.03000
C726        C  0.12543059  0.15243515  0.63764851    -0.07500
C727        C  0.11039801  0.17886821  0.64720263     0.06000
C728        C  0.11766402  0.18768252  0.68923706    -0.02500
Br729      Br  0.09775183  0.22276410  0.70809580    -0.02200
H730        H  0.15634740  0.18058206  0.74779278     0.09900
H731        H  0.11780692  0.14441680  0.60663587     0.08000
Br732      Br  0.16821402  0.10009305  0.65070268    -0.02600
C733        C  0.87532470  0.13053109  0.67774349    -0.09300
C734        C  0.84948355  0.14293243  0.71136555     0.06900
C735        C  0.85687579  0.17109631  0.71647977    -0.03000
C736        C  0.88665873  0.18605215  0.68705185    -0.07500
C737        C  0.90733943  0.17401631  0.65092120     0.06000
C738        C  0.90410296  0.14565253  0.64791949    -0.02500
Br739      Br  0.93827941  0.12640049  0.60386040    -0.02200
H740        H  0.87069183  0.10905491  0.67330060     0.09900
H741        H  0.88871511  0.20774778  0.68999842     0.08000
Br742      Br  0.81796013  0.19200344  0.75560169    -0.02600
C743        C  0.91584123  0.15527266  0.83656529    -0.09300
C744        C  0.88904732  0.17081850  0.86625012     0.06900
C745        C  0.83515563  0.16818744  0.86894851    -0.03000
C746        C  0.80891284  0.15165218  0.84102827    -0.07500
C747        C  0.83456826  0.13702575  0.80936475     0.06000
C748        C  0.88922791  0.13793110  0.80904337    -0.02500
Br749      Br  0.92950364  0.11393563  0.77555532    -0.02200
H750        H  0.95760370  0.15595071  0.83572494     0.09900
H751        H  0.76761053  0.15128899  0.84382282     0.08000
Br752      Br  0.79437588  0.18786539  0.90884443    -0.02600
C753        C  0.87651364  0.30202823  0.81741770    -0.09300
C754        C  0.89910607  0.31305718  0.85352813     0.06900
C755        C  0.89860766  0.34147468  0.85734829    -0.03000
C756        C  0.87580572  0.35786982  0.82590451    -0.07500
C757        C  0.85168890  0.34692318  0.79027916     0.06000
C758        C  0.85160092  0.31826766  0.78693066    -0.02500
Br759      Br  0.81515252  0.29909650  0.74397080    -0.02200
H760        H  0.87548421  0.28034200  0.81407528     0.09900
H761        H  0.87481892  0.37946057  0.83032369     0.08000
Br762      Br  0.92822136  0.35942670  0.90484583    -0.02600
C763        C  0.86452941  0.33564771  0.61932382    -0.09300
C764        C  0.89943389  0.31653017  0.63520439     0.06900
C765        C  0.91784721  0.32024156  0.67681295    -0.03000
C766        C  0.89698379  0.34074622  0.70191205    -0.07500
C767        C  0.85433747  0.35626079  0.68844234     0.06000
C768        C  0.84488308  0.35612344  0.64428474    -0.02500
Br769      Br  0.81984428  0.38631198  0.61203152    -0.02200
H770        H  0.85385904  0.33568669  0.58629799     0.09900
H771        H  0.91388363  0.34365596  0.73246355     0.08000
Br772      Br  0.97012181  0.29817455  0.70257328    -0.02600
C773        C  0.72100152  0.05206172  0.81568542    -0.09300
C774        C  0.69762708  0.06748508  0.78349961     0.06900
C775        C  0.64306573  0.06560322  0.77920733    -0.03000
C776        C  0.61388467  0.04971901  0.80788526    -0.07500
C777        C  0.63706964  0.03692502  0.84279810     0.06000
C778        C  0.69150709  0.03704518  0.84513369    -0.02500
Br779      Br  0.72772082  0.01755568  0.88844561    -0.02200
H780        H  0.76248806  0.05309658  0.81960208     0.09900
H781        H  0.57215436  0.05005559  0.80573720     0.08000
Br782      Br  0.60375484  0.08916874  0.74327523    -0.02600
C783        C  0.67501686  0.09393169  0.65731886    -0.09300
C784        C  0.70508288  0.07883535  0.68623582     0.06900
C785        C  0.70314744  0.05047705  0.68383663    -0.03000
C786        C  0.66876486  0.03800461  0.65580294    -0.07500
C787        C  0.63748967  0.05338860  0.62852247     0.06000
C788        C  0.64163421  0.08156932  0.62894276    -0.02500
Br789      Br  0.59983230  0.10419853  0.59327929    -0.02200
H790        H  0.67523777  0.11562287  0.65772904     0.09900
H791        H  0.66758530  0.01621317  0.65437114     0.08000
Br792      Br  0.75006590  0.02804545  0.71471944    -0.02600
C793        C  0.34930069  0.04274595  0.66351737    -0.09300
C794        C  0.37607042  0.05685170  0.63116217     0.06900
C795        C  0.36677994  0.08465659  0.62612964    -0.03000
C796        C  0.33595773  0.09808343  0.65509190    -0.07500
C797        C  0.31083231  0.08462080  0.68889967     0.06000
C798        C  0.31542671  0.05617351  0.69122223    -0.02500
Br799      Br  0.27213342  0.03428766  0.72725713    -0.02200
H800        H  0.35286416  0.02104198  0.66599103     0.09900
H801        H  0.33303291  0.11959466  0.65102488     0.08000
Br802      Br  0.39548543  0.10616780  0.58073195    -0.02600
C803        C  0.29443608  0.06624172  0.82327419    -0.09300
C804        C  0.31941743  0.07910861  0.78896913     0.06900
C805        C  0.37334235  0.07500488  0.78398854    -0.03000
C806        C  0.40047599  0.05913407  0.81339162    -0.07500
C807        C  0.37569771  0.04759410  0.84872031     0.06000
C808        C  0.32177751  0.05060711  0.85276646    -0.02500
Br809      Br  0.28327861  0.03361013  0.89782349    -0.02200
H810        H  0.25333618  0.06902793  0.82784371     0.09900
H811        H  0.44193631  0.05717961  0.81002152     0.08000
Br812      Br  0.41496191  0.09239027  0.74157419    -0.02600
C813        C  0.68957980  0.44643827  0.63861357    -0.09300
C814        C  0.63600638  0.44243472  0.64301127     0.06900
C815        C  0.61753087  0.42931781  0.67984872    -0.03000
C816        C  0.65235335  0.41865823  0.70950044    -0.07500
C817        C  0.70605083  0.42043024  0.70335697     0.06000
C818        C  0.72426562  0.43603609  0.66876003    -0.02500
Br819      Br  0.79579214  0.44545430  0.66356003    -0.02200
H820        H  0.70451166  0.45779874  0.61169473     0.09900
H821        H  0.63714728  0.40804814  0.73669945     0.08000
Br822      Br  0.54533181  0.42309011  0.68919493    -0.02600
C823        C  0.66699916  0.45137364  0.83418945    -0.09300
C824        C  0.63244071  0.43472133  0.85705018     0.06900
C825        C  0.63232577  0.40696788  0.84973354    -0.03000
C826        C  0.66808928  0.39605700  0.82170114    -0.07500
C827        C  0.70450550  0.41231823  0.79970973     0.06000
C828        C  0.70296403  0.44041935  0.80581393    -0.02500
Br829      Br  0.75073606  0.46448750  0.77833969    -0.02200
H830        H  0.66686546  0.47289437  0.83923488     0.09900
H831        H  0.66656932  0.37461690  0.81695627     0.08000
Br832      Br  0.58231524  0.38334827  0.87596432    -0.02600
C833        C  0.33796691  0.44707728  0.83629509    -0.09300
C834        C  0.36885908  0.43204896  0.86430179     0.06900
C835        C  0.36447971  0.40392172  0.86536392    -0.03000
C836        C  0.33099842  0.39121001  0.83783605    -0.07500
C837        C  0.30152561  0.40574936  0.80794980     0.06000
C838        C  0.30359913  0.43417855  0.80879872    -0.02500
Br839      Br  0.25683263  0.45622721  0.77697510    -0.02200
H840        H  0.33936115  0.46889104  0.83681932     0.09900
H841        H  0.33017313  0.36960224  0.83923728     0.08000
Br842      Br  0.40568662  0.38158495  0.90202652    -0.02600
C843        C  0.39369928  0.43220140  0.68249826    -0.09300
C844        C  0.37001898  0.44404388  0.64720761     0.06900
C845        C  0.31559786  0.44337589  0.64514643    -0.03000
C846        C  0.28676378  0.42884918  0.67561840    -0.07500
C847        C  0.31063327  0.41497023  0.70924622     0.06000
C848        C  0.36515670  0.41754425  0.71300272    -0.02500
Br849      Br  0.40576954  0.39847680  0.75384221    -0.02200
H850        H  0.43527946  0.43272531  0.68482292     0.09900
H851        H  0.24527797  0.42739297  0.67197424     0.08000
Br852      Br  0.27839537  0.46245901  0.60198415    -0.02600
C853        C  0.34524884  0.30160280  0.85930909    -0.09300
C854        C  0.39812573  0.30510874  0.85321762     0.06900
C855        C  0.41680628  0.31827888  0.81671921    -0.03000
C856        C  0.38171002  0.32930103  0.78813739    -0.07500
C857        C  0.32808769  0.32672971  0.79486058     0.06000
C858        C  0.31029547  0.31190700  0.83052421    -0.02500
Br859      Br  0.23989787  0.30354179  0.84274979    -0.02200
H860        H  0.33096093  0.29061552  0.88688873     0.09900
H861        H  0.39674152  0.34080607  0.76160324     0.08000
Br862      Br  0.48916718  0.32350240  0.80608232    -0.02600
C863        C  0.36539676  0.34996946  0.67001959    -0.09300
C864        C  0.33585889  0.33335952  0.69723954     0.06900
C865        C  0.34048264  0.30514181  0.69454387    -0.03000
C866        C  0.37208952  0.29431710  0.66360495    -0.07500
C867        C  0.39945210  0.31110370  0.63543256     0.06000
C868        C  0.39754557  0.33909739  0.63956534    -0.02500
Br869      Br  0.43960300  0.36312798  0.60586909    -0.02200
H870        H  0.36303500  0.37157155  0.67185759     0.09900
H871        H  0.37410927  0.27261098  0.66063337     0.08000
Br872      Br  0.30301839  0.27991271  0.72923519    -0.02600
C873        C  0.63710551  0.30113311  0.81503366    -0.09300
C874        C  0.65300074  0.30274956  0.85727318     0.06900
C875        C  0.70324784  0.31224599  0.86592039    -0.03000
C876        C  0.73188134  0.32384482  0.83359468    -0.07500
C877        C  0.71169525  0.32652512  0.79273192     0.06000
C878        C  0.66970094  0.30977919  0.78257796    -0.02500
Br879      Br  0.67501594  0.28368624  0.73861366    -0.02200
H880        H  0.60264162  0.28992787  0.80691634     0.09900
H881        H  0.76964104  0.33137751  0.84146349     0.08000
Br882      Br  0.73737552  0.31011040  0.91968230    -0.02600
C883        C  0.61079109  0.32449259  0.66575819    -0.09300
C884        C  0.63690702  0.30976430  0.63506326     0.06900
C885        C  0.69125790  0.30962723  0.63397315    -0.03000
C886        C  0.71864778  0.32430531  0.66325747    -0.07500
C887        C  0.69293402  0.33867070  0.69447980     0.06000
C888        C  0.63840647  0.33910322  0.69550173    -0.02500
Br889      Br  0.59935133  0.35719391  0.73788793    -0.02200
H890        H  0.56896183  0.32471521  0.66642906     0.09900
H891        H  0.76037027  0.32374395  0.66256738     0.08000
Br892      Br  0.73062206  0.28836220  0.59541241    -0.02600
C893        C  0.63084843  0.15907447  0.86611337    -0.09300
C894        C  0.63396810  0.18677852  0.86126007     0.06900
C895        C  0.66182296  0.19817764  0.82744628    -0.03000
C896        C  0.68535514  0.18144453  0.79819898    -0.07500
C897        C  0.68207366  0.15321875  0.80244836     0.06000
C898        C  0.65542352  0.14225645  0.83825068    -0.02500
Br899      Br  0.65056370  0.10560947  0.85627546    -0.02200
H900        H  0.60962549  0.15039888  0.89271125     0.09900
H901        H  0.70757432  0.19061031  0.77278324     0.08000
Br902      Br  0.67354483  0.23599431  0.82273754    -0.02600
C903        C  0.63549982  0.16709642  0.71293832    -0.09300
C904        C  0.68710813  0.16085209  0.70210135     0.06900
C905        C  0.70629975  0.17144735  0.66296665    -0.03000
C906        C  0.67375438  0.18442695  0.63514326    -0.07500
C907        C  0.62301566  0.18995825  0.64570888     0.06000
C908        C  0.60495802  0.18335691  0.68655100    -0.02500
Br909      Br  0.54119586  0.19679559  0.70874289    -0.02200
H910        H  0.61812967  0.15932216  0.74171047     0.09900
H911        H  0.68901221  0.19122444  0.60478153     0.08000
Br912      Br  0.77528064  0.17177784  0.64188828    -0.02600
C913        C  0.37848713  0.15056699  0.81567508    -0.09300
C914        C  0.33925309  0.16404953  0.79370563     0.06900
C915        C  0.33273069  0.19196634  0.79940571    -0.03000
C916        C  0.36430229  0.20563509  0.82774673    -0.07500
C917        C  0.40188597  0.19178422  0.85095011     0.06000
C918        C  0.41002271  0.16424526  0.84393414    -0.02500
Br919      Br  0.46322155  0.14450950  0.87262793    -0.02200
H920        H  0.38378747  0.12917590  0.81170094     0.09900
H921        H  0.35763811  0.22682044  0.83341217     0.08000
Br922      Br  0.27727757  0.21173175  0.77416488    -0.02600
C923        C  0.34282027  0.19935458  0.64110355    -0.09300
C924        C  0.39332383  0.19066980  0.63597547     0.06900
C925        C  0.41295842  0.16987480  0.66143933    -0.03000
C926        C  0.38239438  0.15936095  0.69407714    -0.07500
C927        C  0.33055134  0.16695671  0.69804305     0.06000
C928        C  0.31075189  0.18692962  0.67061092    -0.02500
Br929      Br  0.24089774  0.19808700  0.66946162    -0.02200
H930        H  0.32764831  0.21515477  0.62069562     0.09900
H931        H  0.39763754  0.14358428  0.71394895     0.08000
Br932      Br  0.47621922  0.15204604  0.64767978    -0.02600
O933        O  0.41096602  0.70006373  0.06744586    -0.75400
O934        O  0.45994778  0.72174301  0.11646830    -0.54300
C935        C  0.42471192  0.70519225  0.10542125     0.78300
O936        O  0.61943634  0.69711641  0.43160601    -0.60000
O937        O  0.57829118  0.72111391  0.37971576    -0.53000
C938        C  0.61081099  0.70358673  0.39282008     0.70300
O939        O  0.60372491  0.69656267  0.07480066    -0.74600
O940        O  0.56383126  0.72345570  0.12242049    -0.55100
C941        C  0.59432636  0.70444135  0.11272280     0.76300
O942        O  0.41687965  0.69806415  0.42291366    -0.59700
O943        O  0.46486621  0.72192940  0.37453229    -0.52800
C944        C  0.43067993  0.70423397  0.38488885     0.72900
Zr945      Zr  0.43410155  0.71359187  0.99605472     2.54700
O946        O  0.41721026  0.66530272  0.99777767    -0.80300
O947        O  0.34274066  0.72180153  0.49325563    -0.93700
Zr948      Zr  0.58592660  0.70697303  0.00083262     2.64700
O949        O  0.57241500  0.65836532  0.00295381    -0.98700
O950        O  0.68060605  0.70259361  0.50647342    -0.80700
O951        O  0.50832822  0.71033163  0.03924687    -0.84100
O952        O  0.51382545  0.70914566  0.45720338    -2.18800
O953        O  0.41636787  0.79996256  0.42239603    -0.67500
O954        O  0.46690897  0.77858987  0.37422770    -0.52000
C955        C  0.42940101  0.79384311  0.38455366     0.71300
O956        O  0.62202056  0.80242375  0.06501231    -0.60400
O957        O  0.57267871  0.78078854  0.11487997    -0.52400
C958        C  0.60878339  0.79716576  0.10321011     0.73100
O959        O  0.62675187  0.79952940  0.42795213    -0.71800
O960        O  0.58269129  0.77646177  0.37830591    -0.50400
C961        C  0.61838687  0.79272238  0.38985726     0.74500
O962        O  0.41936700  0.80634816  0.06441385    -0.67100
O963        O  0.45909466  0.78051365  0.11467322    -0.54300
C964        C  0.42786290  0.79893396  0.10283153     0.72900
Zr965      Zr  0.44516147  0.79237777  0.49408475     2.77500
O966        O  0.46743557  0.84137573  0.98775347    -0.97800
O967        O  0.35208251  0.79856023  0.49908610    -0.78700
Zr968      Zr  0.59729567  0.78720391  0.49738492     2.70100
O969        O  0.61706676  0.83516764  0.49400884    -0.79900
O970        O  0.68794559  0.77052093  0.00250880    -0.99000
Zr971      Zr  0.51469684  0.75150866  0.07655517     2.21500
Zr972      Zr  0.52015048  0.74987493  0.41676409     2.11100
O973        O  0.52290022  0.79086240  0.45469522    -2.47700
O974        O  0.52255281  0.79192027  0.03633945    -0.79700
O975        O  0.44035065  0.75256487  0.45363849    -0.71900
O976        O  0.59370431  0.74716601  0.03955314    -2.32900
O977        O  0.43779446  0.75373216  0.03576221    -2.29100
O978        O  0.59554770  0.74720149  0.45849100    -0.73700
H979        H  0.51372493  0.69352936  0.43935542     0.78300
H980        H  0.62283558  0.74645176  0.05847702     0.79400
H981        H  0.52530140  0.80631935  0.43584285     0.81600
H982        H  0.40739184  0.75469863  0.05344888     0.79300
H983        H  0.68257606  0.67990340  0.99633456     0.42300
H984        H  0.69658970  0.76714956  0.47419719     0.41300
H985        H  0.59335876  0.84330917  0.00178912     0.40900
H986        H  0.42657356  0.84867689  0.49599005     0.38900
H987        H  0.34361273  0.81217052  0.47704730     0.42000
H988        H  0.32554958  0.70480293  0.99165901     0.36800
H989        H  0.44893513  0.65718371  0.98608092     0.42900
H990        H  0.58770098  0.65277588  0.52859496     0.39300
H991        H  0.48427864  0.84503330  0.50933681     0.44200
H992        H  0.33623277  0.73176483  0.96673921     0.43000
H993        H  0.56293329  0.65361334  0.97371331     0.43100
H994        H  0.70681124  0.79140679  0.50435163     0.43500
O995        O  0.39052464  0.94750850  0.07493726    -0.75400
O996        O  0.44355001  0.96839354  0.12180615    -0.54300
C997        C  0.40372461  0.95386221  0.11279147     0.78300
O998        O  0.61060793  0.94173487  0.42797416    -0.60000
O999        O  0.56078485  0.96080959  0.37624714    -0.53000
C1000       C  0.59922716  0.94660162  0.38888921     0.70300
O1001       O  0.61270864  0.94546026  0.07078233    -0.74600
O1002       O  0.56395126  0.96760863  0.11943798    -0.55100
C1003       C  0.60221058  0.95249381  0.10903805     0.76300
O1004       O  0.39282422  0.93986230  0.43477741    -0.59700
O1005       O  0.43843205  0.95992777  0.38077928    -0.52800
C1006       C  0.40244529  0.94441044  0.39542811     0.72900
Zr1007     Zr  0.42328033  0.95384152  0.00245034     2.54700
O1008       O  0.42530795  0.90505373  0.01053038    -0.80300
O1009       O  0.33206809  0.94789708  0.49965673    -0.93700
Zr1010     Zr  0.57458619  0.95037117  0.99960493     2.64700
O1011       O  0.54975975  0.90302521  0.00373840    -0.98700
O1012       O  0.66858861  0.94028303  0.49989636    -0.80700
O1013       O  0.49991879  0.95257063  0.04343177    -0.84100
O1014       O  0.49976856  0.94972186  0.45901470    -2.18800
O1015       O  0.39664328  0.54196327  0.42111121    -0.67500
O1016       O  0.44313942  0.51878990  0.37239418    -0.52000
C1017       C  0.40670745  0.53505918  0.38289753     0.71300
O1018       O  0.61476873  0.54465758  0.05796458    -0.60400
O1019       O  0.56961779  0.52423729  0.11200461    -0.52400
C1020       C  0.60570580  0.53982801  0.09747311     0.73100
O1021       O  0.61890085  0.53319829  0.41569542    -0.71800
O1022       O  0.56364992  0.51418171  0.36872376    -0.50400
C1023       C  0.60536575  0.52710120  0.37767453     0.74500
O1024       O  0.40262721  0.54885057  0.06110230    -0.67100
O1025       O  0.44593767  0.52689082  0.11391158    -0.54300
C1026       C  0.41184886  0.54380142  0.10031973     0.72900
Zr1027     Zr  0.43212188  0.53482073  0.49176576     2.77500
O1028       O  0.44474303  0.58274994  0.98457996    -0.97800
O1029       O  0.33804104  0.53940198  0.99516111    -0.78700
Zr1030     Zr  0.58356974  0.53065885  0.48864232     2.70100
O1031       O  0.57534710  0.57917050  0.47880174    -0.79900
O1032       O  0.67622358  0.53686908  0.99252114    -0.99000
Zr1033     Zr  0.50375099  0.99506613  0.07812230     2.21500
Zr1034     Zr  0.50110752  0.98916238  0.41412676     2.11100
O1035       O  0.50682500  0.53234020  0.44815765    -2.47700
O1036       O  0.50827517  0.53504843  0.03250477    -0.79700
O1037       O  0.42580581  0.99152585  0.45732770    -0.71900
O1038       O  0.57931217  0.99221893  0.03446757    -2.32900
O1039       O  0.42655146  0.99549249  0.03734221    -2.29100
O1040       O  0.57913165  0.98897208  0.45387543    -0.73700
H1041       H  0.49849557  0.93358009  0.44236615     0.78300
H1042       H  0.61037755  0.99279358  0.05111497     0.79400
H1043       H  0.50814987  0.54705920  0.42786160     0.81600
H1044       H  0.39630149  0.99683892  0.05507396     0.79300
H1045       H  0.68445340  0.95063484  0.99564006     0.42300
H1046       H  0.69028283  0.51780544  0.48059149     0.41300
H1047       H  0.57399731  0.58186019  0.94526626     0.40900
H1048       H  0.45696331  0.58599149  0.45427353     0.38900
H1049       H  0.32475338  0.52534570  0.50523417     0.42000
H1050       H  0.31838761  0.96984254  0.01243798     0.36800
H1051       H  0.38861375  0.89967653  0.01367116     0.42900
H1052       H  0.57726412  0.89520666  0.47720111     0.39300
H1053       H  0.41456155  0.59139634  0.48835783     0.42700
H1054       H  0.31798345  0.93826556  0.01596884     0.43000
H1055       H  0.57279601  0.89516423  0.02549033     0.43100
H1056       H  0.68666900  0.54894538  0.47157385     0.43500
O1057       O  0.91062703  0.80160595  0.06535562    -0.75400
O1058       O  0.95215824  0.77934997  0.11825900    -0.54300
C1059       C  0.92329229  0.79855816  0.10447723     0.78300
O1060       O  0.90801805  0.68404088  0.43533605    -0.60000
O1061       O  0.94561597  0.70811785  0.38117070    -0.53000
C1062       C  0.91668036  0.68891920  0.39585958     0.70300
O1063       O  0.91435504  0.68647415  0.07740318    -0.74600
O1064       O  0.95340083  0.71452808  0.12418516    -0.55100
C1065       C  0.92659019  0.69336000  0.11529233     0.76300
O1066       O  0.90827347  0.79992324  0.42463286    -0.59700
O1067       O  0.94513194  0.77327249  0.37491882    -0.52800
C1068       C  0.91868002  0.79405976  0.38591299     0.72900
Zr1069     Zr  0.92198607  0.78154545  0.99580146     2.54700
O1070       O  0.83183930  0.76738381  0.99553545    -0.80300
O1071       O  0.88490214  0.82652837  0.49195012    -0.93700
Zr1072     Zr  0.92714026  0.70300433  0.00433920     2.64700
O1073       O  0.83360481  0.70569895  0.01017495    -0.98700
O1074       O  0.92314224  0.65360671  0.50556518    -0.80700
O1075       O  0.92373274  0.74375261  0.04284038    -0.84100
O1076       O  0.92138319  0.74055793  0.45769335    -2.18800
O1077       O  0.08538740  0.80333494  0.42184154    -0.67500
O1078       O  0.04883726  0.77505862  0.37430181    -0.52000
C1079       C  0.07457101  0.79650189  0.38380102     0.71300
O1080       O  0.09922530  0.68986389  0.07329358    -0.60400
O1081       O  0.05832018  0.71596002  0.12156266    -0.52400
C1082       C  0.08779583  0.69615514  0.11174099     0.73100
O1083       O  0.10040553  0.68874238  0.43068199    -0.71800
O1084       O  0.05573187  0.71064490  0.37846245    -0.50400
C1085       C  0.08879282  0.69308417  0.39162311     0.74500
O1086       O  0.09960638  0.80206964  0.06094498    -0.67100
O1087       O  0.05834150  0.77959070  0.11489583    -0.54300
C1088       C  0.08939834  0.79784590  0.10029134     0.72900
Zr1089     Zr  0.07456512  0.78461929  0.49312941     2.77500
O1090       O  0.16709484  0.77674978  0.48789471    -0.97800
O1091       O  0.09293049  0.83240918  0.99418380    -0.78700
Zr1092     Zr  0.08092302  0.70612611  0.50090001     2.70100
O1093       O  0.17332163  0.71522899  0.49952733    -0.79900
O1094       O  0.09540303  0.65719431  0.00475724    -0.99000
Zr1095     Zr  0.00361118  0.74642020  0.08055000     2.21500
Zr1096     Zr  0.99896578  0.74179477  0.41580270     2.11100
O1097       O  0.07813200  0.74422593  0.45439238    -2.47700
O1098       O  0.08128784  0.74636074  0.03917538    -0.79700
O1099       O  0.99644246  0.78250273  0.45465860    -0.71900
O1100       O  0.00502808  0.70538380  0.04230218    -2.32900
O1101       O  0.00046591  0.78496263  0.03408083    -2.29100
O1102       O  0.00313831  0.70318308  0.46182592    -0.73700
H1103       H  0.89116435  0.73932805  0.44002504     0.78300
H1104       H  0.00631515  0.68981903  0.06084728     0.79400
H1105       H  0.10747591  0.74447842  0.43544500     0.81600
H1106       H  0.00148983  0.80162374  0.04936057     0.79300
H1107       H  0.96250984  0.64893449  0.00232336     0.42300
H1108       H  0.07020631  0.64966762  0.48630939     0.41300
H1109       H  0.18916233  0.69638509  0.99570897     0.40900
H1110       H  0.17569897  0.78010247  0.45775554     0.38900
H1111       H  0.05156655  0.84038362  0.49932036     0.42000
H1112       H  0.90708469  0.83828978  0.00682009     0.36800
H1113       H  0.81759650  0.77408365  0.02246287     0.42900
H1114       H  0.82176628  0.68691409  0.51191508     0.39300
H1115       H  0.18302952  0.79205344  0.50280248     0.44200
H1116       H  0.85160302  0.82527471  0.00709310     0.43000
H1117       H  0.82710338  0.71106848  0.03972534     0.43100
H1118       H  0.12947049  0.65478333  0.49273341     0.43500
C1119       C  0.26063329  0.62992200  0.20668042     0.45300
H1120       H  0.25710878  0.63278294  0.17198650    -0.03700
C1121       C  0.26971167  0.62489440  0.28751235     0.45400
H1122       H  0.27424224  0.62281864  0.32232382    -0.03700
C1123       C  0.29670105  0.65102818  0.22594495    -0.17400
C1124       C  0.20882319  0.63361754  0.23025614    -0.17100
C1125       C  0.28423107  0.60238578  0.22017339    -0.17500
C1126       C  0.30207921  0.64806174  0.26865242    -0.17500
C1127       C  0.21372561  0.63159482  0.27382902    -0.17100
C1128       C  0.28897366  0.59989743  0.26366654    -0.17400
C1129       C  0.75761660  0.62265435  0.20820481     0.45300
H1130       H  0.76301315  0.62469352  0.17381645    -0.03700
C1131       C  0.74705730  0.61415640  0.28810015     0.45400
H1132       H  0.74371644  0.60992657  0.32241702    -0.03700
C1133       C  0.71800855  0.64180788  0.22817793    -0.17400
C1134       C  0.73672605  0.59419145  0.21869935    -0.17100
C1135       C  0.80767815  0.62831923  0.23306116    -0.17500
C1136       C  0.71202060  0.63688610  0.27141808    -0.17500
C1137       C  0.73121351  0.58961353  0.26151907    -0.17100
C1138       C  0.80221941  0.62398674  0.27606089    -0.17400
C1139       C  0.26052407  0.86925263  0.20753014     0.45300
H1140       H  0.26475750  0.87288465  0.17293935    -0.03700
C1141       C  0.25049437  0.86131249  0.28771426     0.45400
H1142       H  0.24584851  0.85812981  0.32229885    -0.03700
C1143       C  0.29476634  0.84649447  0.22467702    -0.17400
C1144       C  0.27749248  0.89380558  0.23301575    -0.17100
C1145       C  0.20533498  0.86041971  0.22031819    -0.17500
C1146       C  0.28970896  0.84217621  0.26746066    -0.17500
C1147       C  0.27180992  0.88977789  0.27611732    -0.17100
C1148       C  0.20000174  0.85617310  0.26337979    -0.17400
C1149       C  0.76819433  0.87245558  0.28549779     0.45300
H1150       H  0.77226980  0.87291810  0.32022642    -0.03700
C1151       C  0.76161147  0.87705723  0.20513505     0.45400
H1152       H  0.75471248  0.87857916  0.17112285    -0.03700
C1153       C  0.73326551  0.85042328  0.26674917    -0.17400
C1154       C  0.74479310  0.89967431  0.27079753    -0.17100
C1155       C  0.81973706  0.86647067  0.26338209    -0.17500
C1156       C  0.72715311  0.85454478  0.22404007    -0.17500
C1157       C  0.74321480  0.90248655  0.22758236    -0.17100
C1158       C  0.81757546  0.86955029  0.21939384    -0.17400
C1159       C  0.19827748  0.83106471  0.15788095    -0.09300
C1160       C  0.17267993  0.84735466  0.18742350     0.06900
C1161       C  0.11820778  0.84846126  0.18618956    -0.03000
C1162       C  0.09104912  0.83218434  0.15765957    -0.07500
C1163       C  0.11742460  0.81482852  0.13033203     0.06000
C1164       C  0.17148993  0.81474706  0.13027458    -0.02500
Br1165     Br  0.21119370  0.79071592  0.09605038    -0.02200
H1166       H  0.23969030  0.82925609  0.15772735     0.09900
H1167       H  0.04940616  0.83334394  0.15637572     0.08000
Br1168     Br  0.07931675  0.87231986  0.22107627    -0.02600
C1169       C  0.10941255  0.80177104  0.31054566    -0.09300
C1170       C  0.09562630  0.81387698  0.34863675     0.06900
C1171       C  0.10749339  0.84153526  0.35347053    -0.03000
C1172       C  0.13737629  0.85529117  0.32288573    -0.07500
C1173       C  0.15629022  0.84233494  0.28683136     0.06000
C1174       C  0.14032973  0.81523230  0.28036815    -0.02500
Br1175     Br  0.16722529  0.79231132  0.23774450    -0.02200
H1176       H  0.10057965  0.78065424  0.30600414     0.09900
H1177       H  0.14834678  0.87603088  0.32847248     0.08000
Br1178     Br  0.08393730  0.86203135  0.40064359    -0.02600
C1179       C  0.20173857  0.66426281  0.33213914    -0.09300
C1180       C  0.17892589  0.64551241  0.30492434     0.06900
C1181       C  0.12473994  0.64196693  0.30728524    -0.03000
C1182       C  0.09498147  0.65820766  0.33439366    -0.07500
C1183       C  0.11863475  0.67752588  0.36025240     0.06000
C1184       C  0.17259098  0.68017054  0.35898660    -0.02500
Br1185     Br  0.20891287  0.70615882  0.39225328    -0.02200
H1186       H  0.24290009  0.66724736  0.33237189     0.09900
H1187       H  0.05362879  0.65517218  0.33623028     0.08000
Br1188     Br  0.09035819  0.61409185  0.27677939    -0.02600
C1189       C  0.14591433  0.67181153  0.21704691    -0.09300
C1190       C  0.16529914  0.64640936  0.20586651     0.06900
C1191       C  0.15104486  0.63609797  0.16622956    -0.03000
C1192       C  0.12430001  0.65222557  0.13701622    -0.07500
C1193       C  0.10952532  0.67873265  0.14647521     0.06000
C1194       C  0.11758040  0.68772345  0.18828068    -0.02500
Br1195     Br  0.09782959  0.72283374  0.20709641    -0.02200
H1196       H  0.15714231  0.68082396  0.24648629     0.09900
H1197       H  0.11614019  0.64408375  0.10617620     0.08000
Br1198     Br  0.16888673  0.60023311  0.14962588    -0.02600
C1199       C  0.87539410  0.63225473  0.17738759    -0.09300
C1200       C  0.84959130  0.64450072  0.21111904     0.06900
C1201       C  0.85685791  0.67269346  0.21638674    -0.03000
C1202       C  0.88671863  0.68774473  0.18710403    -0.07500
C1203       C  0.90735318  0.67581149  0.15088132     0.06000
C1204       C  0.90383633  0.64746709  0.14753999    -0.02500
Br1205     Br  0.93597982  0.62825796  0.10244419    -0.02200
H1206       H  0.87069752  0.61080258  0.17272756     0.09900
H1207       H  0.88891392  0.70942633  0.19024934     0.08000
Br1208     Br  0.81849903  0.69350090  0.25593249    -0.02600
C1209       C  0.91588043  0.65672734  0.33532267    -0.09300
C1210       C  0.88905087  0.67154573  0.36581573     0.06900
C1211       C  0.83535244  0.66827232  0.36933035    -0.03000
C1212       C  0.80917657  0.65174975  0.34138930    -0.07500
C1213       C  0.83483335  0.63777889  0.30901224     0.06000
C1214       C  0.88946630  0.63932700  0.30788730    -0.02500
Br1215     Br  0.93035849  0.61612130  0.27351162    -0.02200
H1216       H  0.95757743  0.65798483  0.33381052     0.09900
H1217       H  0.76791083  0.65093555  0.34468284     0.08000
Br1218     Br  0.79469045  0.68730562  0.41010688    -0.02600
C1219       C  0.87623951  0.80214839  0.31546296    -0.09300
C1220       C  0.89867245  0.81271797  0.35198816     0.06900
C1221       C  0.89979314  0.84108181  0.35606831    -0.03000
C1222       C  0.87804878  0.85794915  0.32481868    -0.07500
C1223       C  0.85363653  0.84751848  0.28899962     0.06000
C1224       C  0.85271657  0.81892147  0.28489524    -0.02500
Br1225     Br  0.81761844  0.80063678  0.24032252    -0.02200
H1226       H  0.87452347  0.78050292  0.31171894     0.09900
H1227       H  0.87807670  0.87951822  0.32955859     0.08000
Br1228     Br  0.93055338  0.85826999  0.40371931    -0.02600
C1229       C  0.86833479  0.83839885  0.11818856    -0.09300
C1230       C  0.90339593  0.81936769  0.13417447     0.06900
C1231       C  0.92126573  0.82300059  0.17593418    -0.03000
C1232       C  0.89990934  0.84336289  0.20097537    -0.07500
C1233       C  0.85656409  0.85835637  0.18760067     0.06000
C1234       C  0.84719038  0.85835969  0.14338414    -0.02500
Br1235     Br  0.81803314  0.88769883  0.11142634    -0.02200
H1236       H  0.85787723  0.83844516  0.08511633     0.09900
H1237       H  0.91645229  0.84625589  0.23166924     0.08000
Br1238     Br  0.97235073  0.80054426  0.20242005    -0.02600
C1239       C  0.72281568  0.55254798  0.31509645    -0.09300
C1240       C  0.69942448  0.56757888  0.28247742     0.06900
C1241       C  0.64503758  0.56496390  0.27751350    -0.03000
C1242       C  0.61596229  0.54901945  0.30624630    -0.07500
C1243       C  0.63897084  0.53684987  0.34180582     0.06000
C1244       C  0.69339840  0.53739240  0.34445745    -0.02500
Br1245     Br  0.72978106  0.51797061  0.38770419    -0.02200
H1246       H  0.76421112  0.55395872  0.31936263     0.09900
H1247       H  0.57427006  0.54893127  0.30363323     0.08000
Br1248     Br  0.60528792  0.58792049  0.24093634    -0.02600
C1249       C  0.67689671  0.59408085  0.15660452    -0.09300
C1250       C  0.70753191  0.57913852  0.18528074     0.06900
C1251       C  0.70631877  0.55076949  0.18275138    -0.03000
C1252       C  0.67187832  0.53810817  0.15492144    -0.07500
C1253       C  0.63981690  0.55334489  0.12802035     0.06000
C1254       C  0.64336339  0.58155505  0.12854695    -0.02500
Br1255     Br  0.60031199  0.60404459  0.09367328    -0.02200
H1256       H  0.67649479  0.61577966  0.15721376     0.09900
H1257       H  0.67116915  0.51631638  0.15341817     0.08000
Br1258     Br  0.75404020  0.52864809  0.21340032    -0.02600
C1259       C  0.35161699  0.54402828  0.16262915    -0.09300
C1260       C  0.37950429  0.55836378  0.13127887     0.06900
C1261       C  0.37124507  0.58625343  0.12683779    -0.03000
C1262       C  0.33892141  0.59947409  0.15504065    -0.07500
C1263       C  0.31250323  0.58568313  0.18795901     0.06000
C1264       C  0.31709544  0.55724398  0.18990148    -0.02500
Br1265     Br  0.27340315  0.53503989  0.22507855    -0.02200
H1266       H  0.35488687  0.52229353  0.16462720     0.09900
H1267       H  0.33603495  0.62101835  0.15137107     0.08000
Br1268     Br  0.40418080  0.60784591  0.08348167    -0.02600
C1269       C  0.29406731  0.56697562  0.32351170    -0.09300
C1270       C  0.31900378  0.57915513  0.28850771     0.06900
C1271       C  0.37275038  0.57449588  0.28341930    -0.03000
C1272       C  0.39951835  0.55843872  0.31285235    -0.07500
C1273       C  0.37493612  0.54766176  0.34886429     0.06000
C1274       C  0.32124649  0.55154189  0.35345392    -0.02500
Br1275     Br  0.28277276  0.53617797  0.39994400    -0.02200
H1276       H  0.25319138  0.57032610  0.32844310     0.09900
H1277       H  0.44083413  0.55599826  0.30915519     0.08000
Br1278     Br  0.41508689  0.59205324  0.24162951    -0.02600
C1279       C  0.69110825  0.94761793  0.13941598    -0.09300
C1280       C  0.63759782  0.94293706  0.14314450     0.06900
C1281       C  0.61921690  0.92905786  0.17939705    -0.03000
C1282       C  0.65403468  0.91847405  0.20905427    -0.07500
C1283       C  0.70763536  0.92101744  0.20352932     0.06000
C1284       C  0.72581234  0.93718050  0.16956609    -0.02500
Br1285     Br  0.79734388  0.94686488  0.16501384    -0.02200
H1286       H  0.70597696  0.95941977  0.11294472     0.09900
H1287       H  0.63901581  0.90720259  0.23568671     0.08000
Br1288     Br  0.54735607  0.92144438  0.18790583    -0.02600
C1289       C  0.66712536  0.95200941  0.33296679    -0.09300
C1290       C  0.63341328  0.93516298  0.35633056     0.06900
C1291       C  0.63458469  0.90734349  0.34965915    -0.03000
C1292       C  0.67079663  0.89660650  0.32192133    -0.07500
C1293       C  0.70647473  0.91304855  0.29955975     0.06000
C1294       C  0.70362190  0.94119926  0.30489415    -0.02500
Br1295     Br  0.75013424  0.96558193  0.27672713    -0.02200
H1296       H  0.66590836  0.97357283  0.33737597     0.09900
H1297       H  0.67012998  0.87512301  0.31769092     0.08000
Br1298     Br  0.58583062  0.88324601  0.37633207    -0.02600
C1299       C  0.33870602  0.94608900  0.33704080    -0.09300
C1300       C  0.36887448  0.93079987  0.36518838     0.06900
C1301       C  0.36334015  0.90270027  0.36644161    -0.03000
C1302       C  0.32965850  0.89028632  0.33876401    -0.07500
C1303       C  0.30092721  0.90513187  0.30877879     0.06000
C1304       C  0.30406354  0.93352480  0.30949183    -0.02500
Br1305     Br  0.25870062  0.95607116  0.27713028    -0.02200
H1306       H  0.34093996  0.96788844  0.33744597     0.09900
H1307       H  0.32817155  0.86865594  0.34005259     0.08000
Br1308     Br  0.40313171  0.87990003  0.40337015    -0.02600
C1309       C  0.39428474  0.93044840  0.18290424    -0.09300
C1310       C  0.37094684  0.94312096  0.14817949     0.06900
C1311       C  0.31653818  0.94350325  0.14655002    -0.03000
C1312       C  0.28707638  0.92919067  0.17686898    -0.07500
C1313       C  0.31037002  0.91467436  0.21014288     0.06000
C1314       C  0.36506895  0.91623046  0.21349634    -0.02500
Br1315     Br  0.40465694  0.89656072  0.25422131    -0.02200
H1316       H  0.43591696  0.93012728  0.18482203     0.09900
H1317       H  0.24549081  0.92851777  0.17348576     0.08000
Br1318     Br  0.28042077  0.96389618  0.10421411    -0.02600
C1319       C  0.34306415  0.79965505  0.35696565    -0.09300
C1320       C  0.39589615  0.80375468  0.35130908     0.06900
C1321       C  0.41445013  0.81748068  0.31530967    -0.03000
C1322       C  0.37923792  0.82866737  0.28699972    -0.07500
C1323       C  0.32565379  0.82594365  0.29372021     0.06000
C1324       C  0.30799622  0.81033441  0.32855651    -0.02500
Br1325     Br  0.23761861  0.80143410  0.33977702    -0.02200
H1326       H  0.32893420  0.78810679  0.38403690     0.09900
H1327       H  0.39413094  0.84033151  0.26062388     0.08000
Br1328     Br  0.48679228  0.82314376  0.30509898    -0.02600
C1329       C  0.36051305  0.85006454  0.16855695    -0.09300
C1330       C  0.33221972  0.83339120  0.19648682     0.06900
C1331       C  0.33773951  0.80519034  0.19427977    -0.03000
C1332       C  0.37094669  0.79447073  0.16436137    -0.07500
C1333       C  0.39757014  0.81133439  0.13580471     0.06000
C1334       C  0.39282896  0.83933459  0.13823413    -0.02500
Br1335     Br  0.43007903  0.86383032  0.10166492    -0.02200
H1336       H  0.35679903  0.87163856  0.16946905     0.09900
H1337       H  0.37418361  0.77277027  0.16203493     0.08000
Br1338     Br  0.29816664  0.77987736  0.22727715    -0.02600
C1339       C  0.64138083  0.79995389  0.31461816    -0.09300
C1340       C  0.65307935  0.80395868  0.35735305     0.06900
C1341       C  0.70129487  0.81557815  0.36761449    -0.03000
C1342       C  0.73206553  0.82601535  0.33562091    -0.07500
C1343       C  0.71474635  0.82708975  0.29377210     0.06000
C1344       C  0.67504647  0.80892011  0.28300757    -0.02500
Br1345     Br  0.68266145  0.78341695  0.23833661    -0.02200
H1346       H  0.60909994  0.78728581  0.30584328     0.09900
H1347       H  0.76900601  0.83414816  0.34453142     0.08000
Br1348     Br  0.72964437  0.81882970  0.42343553    -0.02600
C1349       C  0.61246260  0.82466285  0.16740032    -0.09300
C1350       C  0.63834474  0.81087721  0.13546116     0.06900
C1351       C  0.69268106  0.81127064  0.13359303    -0.03000
C1352       C  0.72019018  0.82561957  0.16315199    -0.07500
C1353       C  0.69474098  0.83912082  0.19545454     0.06000
C1354       C  0.64025381  0.83894467  0.19744562    -0.02500
Br1355     Br  0.60162215  0.85614776  0.24105900    -0.02200
H1356       H  0.57065243  0.82447002  0.16874480     0.09900
H1357       H  0.76192139  0.82558448  0.16165327     0.08000
Br1358     Br  0.73219009  0.79119955  0.09360843    -0.02600
C1359       C  0.63176114  0.65996223  0.36535905    -0.09300
C1360       C  0.63697849  0.68765143  0.36135160     0.06900
C1361       C  0.66620623  0.69885284  0.32816344    -0.03000
C1362       C  0.68820591  0.68201231  0.29825930    -0.07500
C1363       C  0.68275144  0.65384508  0.30161770     0.06000
C1364       C  0.65495821  0.64301110  0.33684539    -0.02500
Br1365     Br  0.64593641  0.60617300  0.35220818    -0.02200
H1366       H  0.60960255  0.65140049  0.39152802     0.09900
H1367       H  0.71097332  0.69100051  0.27306402     0.08000
Br1368     Br  0.68246011  0.73629819  0.32561694    -0.02600
C1369       C  0.63699344  0.66836978  0.21272188    -0.09300
C1370       C  0.68821720  0.66163795  0.20147176     0.06900
C1371       C  0.70768407  0.67242870  0.16249437    -0.03000
C1372       C  0.67553932  0.68616287  0.13529103    -0.07500
C1373       C  0.62493672  0.69178913  0.14605826     0.06000
C1374       C  0.60693997  0.68513897  0.18685951    -0.02500
Br1375     Br  0.54431644  0.69940474  0.20994407    -0.02200
H1376       H  0.61945420  0.66056152  0.24139158     0.09900
H1377       H  0.69078697  0.69316178  0.10502866     0.08000
Br1378     Br  0.77613905  0.67173118  0.14018564    -0.02600
C1379       C  0.37620846  0.64932454  0.31742173    -0.09300
C1380       C  0.33865880  0.66354178  0.29462523     0.06900
C1381       C  0.33407774  0.69158257  0.29989110    -0.03000
C1382       C  0.36736476  0.70488163  0.32728522    -0.07500
C1383       C  0.40368923  0.69042914  0.35096932     0.06000
C1384       C  0.40844365  0.66248921  0.34568855    -0.02500
Br1385     Br  0.45741715  0.64140300  0.37701980    -0.02200
H1386       H  0.37948712  0.62775715  0.31420912     0.09900
H1387       H  0.36249799  0.72627380  0.33233767     0.08000
Br1388     Br  0.27831733  0.71195982  0.27632387    -0.02600
C1389       C  0.34416096  0.70125294  0.14357075    -0.09300
C1390       C  0.39474605  0.69260423  0.13875593     0.06900
C1391       C  0.41410225  0.67168077  0.16413147    -0.03000
C1392       C  0.38281653  0.66062151  0.19587261    -0.07500
C1393       C  0.33079154  0.66803686  0.19922564     0.06000
C1394       C  0.31153960  0.68849196  0.17234408    -0.02500
Br1395     Br  0.24174108  0.69988990  0.17091844    -0.02200
H1396       H  0.32931025  0.71722498  0.12332650     0.09900
H1397       H  0.39768079  0.64451588  0.21539357     0.08000
Br1398     Br  0.47820880  0.65439436  0.15133595    -0.02600
O1399       O  0.41145565  0.69760658  0.56532029    -0.75400
O1400       O  0.45732133  0.72041932  0.61505070    -0.54300
C1401       C  0.42353801  0.70316602  0.60350662     0.78300
O1402       O  0.61535931  0.69589975  0.93026782    -0.60000
O1403       O  0.57658787  0.72109737  0.87859643    -0.53000
C1404       C  0.60771503  0.70285463  0.89148460     0.70300
O1405       O  0.60515174  0.69739342  0.57531518    -0.74600
O1406       O  0.56226598  0.72283996  0.62309942    -0.55100
C1407       C  0.59452619  0.70463245  0.61335998     0.76300
O1408       O  0.41254704  0.69916770  0.92479989    -0.59700
O1409       O  0.46252790  0.72144789  0.87588738    -0.52800
C1410       C  0.42692233  0.70458823  0.88661463     0.72900
Zr1411     Zr  0.43503268  0.71256889  0.49467017     2.54700
O1412       O  0.41452681  0.66468831  0.49188407    -0.80300
O1413       O  0.34191946  0.72275205  0.99444330    -0.93700
Zr1414     Zr  0.58742987  0.70783851  0.50122422     2.64700
O1415       O  0.57590233  0.65911453  0.50047387    -0.98700
O1416       O  0.67842162  0.69888390  0.00486248    -0.80700
O1417       O  0.50885450  0.70951948  0.53871303    -0.84100
O1418       O  0.51181495  0.70890794  0.95751427    -2.18800
O1419       O  0.41628261  0.80005502  0.92316353    -0.67500
O1420       O  0.46629996  0.77861623  0.87475800    -0.52000
C1421       C  0.42889015  0.79389017  0.88527088     0.71300
O1422       O  0.61881871  0.80259186  0.56637345    -0.60400
O1423       O  0.57059677  0.77974882  0.61578425    -0.52400
C1424       C  0.60590890  0.79669220  0.60444191     0.73100
O1425       O  0.62875652  0.79788780  0.92749107    -0.71800
O1426       O  0.58227584  0.77566941  0.87828373    -0.50400
C1427       C  0.61903134  0.79136830  0.88954317     0.74500
O1428       O  0.41978701  0.80657403  0.56432315    -0.67100
O1429       O  0.45774400  0.77974371  0.61427334    -0.54300
C1430       C  0.42780818  0.79878432  0.60264613     0.72900
Zr1431     Zr  0.44757464  0.79347597  0.99423509     2.77500
O1432       O  0.45954376  0.84066703  0.48664989    -0.97800
O1433       O  0.35610665  0.80441106  0.99486746    -0.78700
Zr1434     Zr  0.59933241  0.78619700  0.99679786     2.70100
O1435       O  0.62426075  0.83348889  0.99202515    -0.79900
O1436       O  0.68759879  0.77420289  0.50236923    -0.99000
Zr1437     Zr  0.51320561  0.75059372  0.57654955     2.21500
Zr1438     Zr  0.51932042  0.74953164  0.91690790     2.11100
O1439       O  0.52471102  0.79063609  0.95434929    -2.47700
O1440       O  0.51979865  0.79120140  0.53658374    -0.79700
O1441       O  0.44055015  0.75338692  0.95470023    -0.71900
O1442       O  0.59275893  0.74794257  0.53997511    -2.32900
O1443       O  0.43680220  0.75240919  0.53515853    -2.29100
O1444       O  0.59523353  0.74616446  0.95799349    -0.73700
H1445       H  0.51060616  0.69325413  0.93977626     0.78300
H1446       H  0.62171112  0.74749515  0.55909231     0.79400
H1447       H  0.52777426  0.80588628  0.93516596     0.81600
H1448       H  0.40630106  0.75311306  0.55277347     0.79300
H1449       H  0.69178677  0.71678316  0.52614895     0.42300
H1450       H  0.69528010  0.76159126  0.97538831     0.41300
H1451       H  0.58798726  0.84371113  0.50904443     0.40900
H1452       H  0.47736406  0.84428309  0.95778749     0.38900
H1453       H  0.33840120  0.78668456  0.99485353     0.42000
H1454       H  0.33037070  0.71374800  0.46669254     0.36800
H1455       H  0.43693474  0.65611138  0.51341328     0.42900
H1456       H  0.54019932  0.65574653  0.01948943     0.39300
H1457       H  0.43348577  0.85025771  0.99042134     0.44200
H1458       H  0.34029331  0.74147803  0.48819321     0.43000
H1459       H  0.53802483  0.65636948  0.50114980     0.43100
H1460       H  0.70917117  0.78713165  0.00166961     0.43500
O1461       O  0.39173584  0.94751002  0.57585318    -0.75400
O1462       O  0.44473114  0.96845993  0.62262481    -0.54300
C1463       C  0.40476525  0.95396519  0.61373426     0.78300
O1464       O  0.60894126  0.94167228  0.92838378    -0.60000
O1465       O  0.55963089  0.96081129  0.87637243    -0.53000
C1466       C  0.59786519  0.94653220  0.88924979     0.70300
O1467       O  0.61249459  0.94469316  0.57100896    -0.74600
O1468       O  0.56581309  0.96839759  0.61929000    -0.55100
C1469       C  0.60284850  0.95244920  0.60902122     0.76300
O1470       O  0.39147294  0.94020138  0.93409670    -0.59700
O1471       O  0.43577232  0.96125816  0.88030671    -0.52800
C1472       C  0.40032967  0.94531618  0.89481729     0.72900
Zr1473     Zr  0.42547690  0.95307126  0.50326062     2.54700
O1474       O  0.43501369  0.90461535  0.51244873    -0.80300
O1475       O  0.32950106  0.95345543  0.99756299    -0.93700
Zr1476     Zr  0.57682928  0.95064945  0.49936924     2.64700
O1477       O  0.55851623  0.90248298  0.50181620    -0.98700
O1478       O  0.66321332  0.93438707  0.00175362    -0.80700
O1479       O  0.50234299  0.95262121  0.54377953    -0.84100
O1480       O  0.49787541  0.94996169  0.95870820    -2.18800
O1481       O  0.39749707  0.54233148  0.92085309    -0.67500
O1482       O  0.44337312  0.51863763  0.87238201    -0.52000
C1483       C  0.40744365  0.53526052  0.88270004     0.71300
O1484       O  0.61606284  0.54304641  0.55833411    -0.60400
O1485       O  0.56836067  0.52380438  0.61197919    -0.52400
C1486       C  0.60576307  0.53863443  0.59775853     0.73100
O1487       O  0.61907451  0.53262620  0.91595766    -0.71800
O1488       O  0.56335790  0.51379098  0.86917737    -0.50400
C1489       C  0.60532913  0.52648863  0.87803593     0.74500
O1490       O  0.40257134  0.54842751  0.56141198    -0.67100
O1491       O  0.44482189  0.52591569  0.61418716    -0.54300
C1492       C  0.41102601  0.54299851  0.60064656     0.72900
Zr1493     Zr  0.43132231  0.53429734  0.99184730     2.77500
O1494       O  0.44883468  0.58301306  0.48458486    -0.97800
O1495       O  0.33967802  0.54287574  0.49597557    -0.78700
Zr1496     Zr  0.58291300  0.53123534  0.98854753     2.70100
O1497       O  0.57351460  0.57951952  0.97639339    -0.79900
O1498       O  0.67714296  0.53476918  0.49256547    -0.99000
Zr1499     Zr  0.50448001  0.99525560  0.57833559     2.21500
Zr1500     Zr  0.50028789  0.98947462  0.91395203     2.11100
O1501       O  0.50595978  0.53221493  0.94823933    -2.47700
O1502       O  0.50890048  0.53482848  0.53257511    -0.79700
O1503       O  0.42477951  0.99225668  0.95671528    -0.71900
O1504       O  0.58011058  0.99241847  0.53454542    -2.32900
O1505       O  0.42741548  0.99500408  0.53754221    -2.29100
O1506       O  0.57810573  0.98885098  0.95416205    -0.73700
H1507       H  0.49622875  0.93381168  0.94209140     0.78300
H1508       H  0.61109412  0.99299899  0.55130745     0.79400
H1509       H  0.50681721  0.54680248  0.92770997     0.81600
H1510       H  0.39708880  0.99626655  0.55519468     0.79300
H1511       H  0.68541222  0.95688538  0.51019023     0.42300
H1512       H  0.69039797  0.51977447  0.98183302     0.41300
H1513       H  0.59454956  0.58328901  0.45234785     0.40900
H1514       H  0.45901408  0.58551749  0.95576493     0.38900
H1515       H  0.32508121  0.52151052  0.00468817     0.42000
H1516       H  0.31820572  0.96395498  0.51388029     0.36800
H1517       H  0.45365560  0.89882684  0.48682158     0.42900
H1518       H  0.56214333  0.89539889  0.97682337     0.39300
H1519       H  0.40945884  0.59025849  0.98299422     0.42700
H1520       H  0.32359458  0.93255659  0.51885139     0.43000
H1521       H  0.57783384  0.89567693  0.52666021     0.43100
H1522       H  0.68517817  0.55056308  0.97059308     0.43500
O1523       O  0.90862034  0.80062616  0.56641819    -0.75400
O1524       O  0.95075293  0.77857910  0.61918870    -0.54300
C1525       C  0.92151121  0.79762772  0.60552280     0.78300
O1526       O  0.90449681  0.68522397  0.93532845    -0.60000
O1527       O  0.94352019  0.70870698  0.88118358    -0.53000
C1528       C  0.91344615  0.68997751  0.89582893     0.70300
O1529       O  0.91507350  0.68540740  0.57731159    -0.74600
O1530       O  0.95202064  0.71411466  0.62423180    -0.55100
C1531       C  0.92631257  0.69258554  0.61529479     0.76300
O1532       O  0.91227023  0.80107960  0.92443580    -0.59700
O1533       O  0.94535044  0.77323843  0.87468823    -0.52800
C1534       C  0.92086352  0.79467458  0.88569083     0.72900
Zr1535     Zr  0.92019874  0.78109911  0.49635903     2.54700
O1536       O  0.82948645  0.76798666  0.49791362    -0.80300
O1537       O  0.88409154  0.82633877  0.99053880    -0.93700
Zr1538     Zr  0.92736083  0.70255525  0.50438212     2.64700
O1539       O  0.83377959  0.70582833  0.50915950    -0.98700
O1540       O  0.92590831  0.65403098  0.00621102    -0.80700
O1541       O  0.92269476  0.74315491  0.54309814    -0.84100
O1542       O  0.92172493  0.74093071  0.95756068    -2.18800
O1543       O  0.08444897  0.80321411  0.92116097    -0.67500
O1544       O  0.04917732  0.77442746  0.87375123    -0.52000
C1545       C  0.07404948  0.79614832  0.88316590     0.71300
O1546       O  0.09996379  0.69072604  0.57355710    -0.60400
O1547       O  0.05736967  0.71592186  0.62204290    -0.52400
C1548       C  0.08775655  0.69654498  0.61203651     0.73100
O1549       O  0.09928564  0.68829094  0.93032004    -0.71800
O1550       O  0.05366079  0.70964889  0.87813201    -0.50400
C1551       C  0.08699474  0.69227019  0.89133307     0.74500
O1552       O  0.09723640  0.80273560  0.56161576    -0.67100
O1553       O  0.05664796  0.77966001  0.61535576    -0.54300
C1554       C  0.08719569  0.79822675  0.60092028     0.72900
Zr1555     Zr  0.07638079  0.78413569  0.99238778     2.77500
O1556       O  0.16887290  0.77643871  0.98567752    -0.97800
O1557       O  0.08660926  0.83321558  0.49419752    -0.78700
Zr1558     Zr  0.08081087  0.70563883  0.00066239     2.70100
O1559       O  0.17342963  0.71424907  0.00024845    -0.79900
O1560       O  0.09532506  0.65770041  0.50603321    -0.99000
Zr1561     Zr  0.00243755  0.74616242  0.58096275     2.21500
Zr1562     Zr  0.99892959  0.74159164  0.91554445     2.11100
O1563       O  0.07854135  0.74358781  0.95381576    -2.47700
O1564       O  0.08013265  0.74673832  0.53969030    -0.79700
O1565       O  0.99804869  0.78245764  0.95404796    -0.71900
O1566       O  0.00506820  0.70521465  0.54250544    -2.32900
O1567       O  0.99853731  0.78475635  0.53468794    -2.29100
O1568       O  0.00278476  0.70303346  0.96170472    -0.73700
H1569       H  0.89140796  0.73989294  0.93997652     0.78300
H1570       H  0.00672349  0.68961288  0.56095392     0.79400
H1571       H  0.10759890  0.74351553  0.93459952     0.81600
H1572       H  0.99919620  0.80137802  0.55008139     0.79300
H1573       H  0.95947611  0.64793236  0.50201818     0.42300
H1574       H  0.06836755  0.64922578  0.98671575     0.41300
H1575       H  0.18946315  0.69720105  0.49914162     0.40900
H1576       H  0.17509020  0.77400954  0.95508869     0.38900
H1577       H  0.06119820  0.84013657  0.00654401     0.42000
H1578       H  0.90737544  0.83783860  0.50975038     0.36800
H1579       H  0.81845581  0.77096186  0.52746776     0.42900
H1580       H  0.82171359  0.68673442  0.00913200     0.39300
H1581       H  0.18481636  0.79411454  0.99180536     0.44200
H1582       H  0.85142477  0.82555209  0.50713707     0.43000
H1583       H  0.82713221  0.71358243  0.53729829     0.43100
H1584       H  0.12814987  0.65417881  0.98932135     0.43500
C1585       C  0.25946571  0.62923822  0.70664876     0.45300
H1586       H  0.25601007  0.63209820  0.67195718    -0.03700
C1587       C  0.26861808  0.62425760  0.78746643     0.45400
H1588       H  0.27307583  0.62218069  0.82228334    -0.03700
C1589       C  0.29592477  0.65019665  0.72584906    -0.17400
C1590       C  0.20770507  0.63314332  0.73019496    -0.17100
C1591       C  0.28274974  0.60165466  0.72006474    -0.17500
C1592       C  0.30132422  0.64733121  0.76861780    -0.17500
C1593       C  0.21259979  0.63110285  0.77374831    -0.17100
C1594       C  0.28773999  0.59920118  0.76353800    -0.17400
C1595       C  0.75757541  0.62146518  0.70821589     0.45300
H1596       H  0.76308711  0.62335210  0.67382147    -0.03700
C1597       C  0.74675955  0.61337455  0.78817835     0.45400
H1598       H  0.74354174  0.60925130  0.82250351    -0.03700
C1599       C  0.71772375  0.64067193  0.72785195    -0.17400
C1600       C  0.73679619  0.59300081  0.71901177    -0.17100
C1601       C  0.80755831  0.62731882  0.73314903    -0.17500
C1602       C  0.71155818  0.63596757  0.77117197    -0.17500
C1603       C  0.73127711  0.58864511  0.76186774    -0.17100
C1604       C  0.80186315  0.62330521  0.77623748    -0.17400
C1605       C  0.26021315  0.86911154  0.70736527     0.45300
H1606       H  0.26452452  0.87267780  0.67276098    -0.03700
C1607       C  0.24993154  0.86115261  0.78756350     0.45400
H1608       H  0.24518308  0.85802621  0.82214309    -0.03700
C1609       C  0.29469844  0.84644225  0.72456623    -0.17400
C1610       C  0.27690759  0.89371863  0.73291294    -0.17100
C1611       C  0.20492589  0.86026670  0.72023910    -0.17500
C1612       C  0.28948818  0.84209911  0.76739967    -0.17500
C1613       C  0.27081573  0.88970206  0.77596008    -0.17100
C1614       C  0.19955477  0.85592323  0.76321516    -0.17400
C1615       C  0.76627937  0.87198823  0.78585268     0.45300
H1616       H  0.76976269  0.87203588  0.82067730    -0.03700
C1617       C  0.76062807  0.87696707  0.70542381     0.45400
H1618       H  0.75419475  0.87863721  0.67133446    -0.03700
C1619       C  0.73115126  0.85028599  0.76650043    -0.17400
C1620       C  0.74347517  0.89936299  0.77138098    -0.17100
C1621       C  0.81800867  0.86602193  0.76398524    -0.17500
C1622       C  0.72548714  0.85460451  0.72381834    -0.17500
C1623       C  0.74239114  0.90238190  0.72812855    -0.17100
C1624       C  0.81633366  0.86912530  0.72004070    -0.17400
C1625       C  0.19684946  0.83049691  0.65869780    -0.09300
C1626       C  0.17182085  0.84738528  0.68758400     0.06900
C1627       C  0.11742425  0.84922906  0.68605700    -0.03000
C1628       C  0.08964802  0.83307536  0.65770115    -0.07500
C1629       C  0.11543731  0.81504204  0.63106147     0.06000
C1630       C  0.16948013  0.81423138  0.63143410    -0.02500
Br1631     Br  0.20836872  0.78941260  0.59808726    -0.02200
H1632       H  0.23818759  0.82817891  0.65897605     0.09900
H1633       H  0.04809049  0.83482701  0.65605809     0.08000
Br1634     Br  0.07971790  0.87401687  0.72022683    -0.02600
C1635       C  0.10923888  0.80136061  0.81015274    -0.09300
C1636       C  0.09479906  0.81354892  0.84798856     0.06900
C1637       C  0.10611037  0.84127888  0.85269381    -0.03000
C1638       C  0.13606853  0.85507290  0.82218625    -0.07500
C1639       C  0.15565033  0.84205956  0.78641802     0.06000
C1640       C  0.14020146  0.81486086  0.78008943    -0.02500
Br1641     Br  0.16775827  0.79188883  0.73786235    -0.02200
H1642       H  0.10092977  0.78016912  0.80577864     0.09900
H1643       H  0.14666858  0.87587329  0.82767936     0.08000
Br1644     Br  0.08214728  0.86172959  0.89981583    -0.02600
C1645       C  0.20012056  0.66392717  0.83176087    -0.09300
C1646       C  0.17758743  0.64493467  0.80480585     0.06900
C1647       C  0.12337542  0.64124381  0.80710253    -0.03000
C1648       C  0.09341450  0.65732071  0.83428217    -0.07500
C1649       C  0.11684240  0.67673075  0.86005379     0.06000
C1650       C  0.17071200  0.67973508  0.85858071    -0.02500
Br1651     Br  0.20637998  0.70614423  0.89155862    -0.02200
H1652       H  0.24121732  0.66717342  0.83173931     0.09900
H1653       H  0.05208124  0.65417102  0.83609402     0.08000
Br1654     Br  0.08895461  0.61376351  0.77578164    -0.02600
C1655       C  0.14410265  0.67120326  0.71742326    -0.09300
C1656       C  0.16428301  0.64604918  0.70573704     0.06900
C1657       C  0.15091563  0.63616486  0.66562442    -0.03000
C1658       C  0.12508546  0.65265096  0.63636243    -0.07500
C1659       C  0.10939849  0.67890489  0.64650103     0.06000
C1660       C  0.11588624  0.68727428  0.68881478    -0.02500
Br1661     Br  0.09370438  0.72168468  0.70889344    -0.02200
H1662       H  0.15441076  0.67994717  0.74726098     0.09900
H1663       H  0.11792636  0.64489284  0.60510805     0.08000
Br1664     Br  0.16811567  0.60027438  0.64870877    -0.02600
C1665       C  0.87621896  0.63136145  0.67797916    -0.09300
C1666       C  0.84932055  0.64362110  0.71117244     0.06900
C1667       C  0.85556293  0.67190042  0.71598277    -0.03000
C1668       C  0.88532096  0.68702806  0.68673495    -0.07500
C1669       C  0.90708269  0.67504871  0.65098843     0.06000
C1670       C  0.90488355  0.64664009  0.64827024    -0.02500
Br1671     Br  0.93989865  0.62750243  0.60452624    -0.02200
H1672       H  0.87249384  0.60982206  0.67373776     0.09900
H1673       H  0.88662001  0.70875043  0.68950086     0.08000
Br1674     Br  0.81582907  0.69260910  0.75472272    -0.02600
C1675       C  0.91370551  0.65764749  0.83572132    -0.09300
C1676       C  0.88609455  0.67258901  0.86558657     0.06900
C1677       C  0.83240811  0.66908513  0.86850139    -0.03000
C1678       C  0.80717131  0.65188622  0.84093633    -0.07500
C1679       C  0.83365956  0.63773971  0.80913896     0.06000
C1680       C  0.88824165  0.63978849  0.80844296    -0.02500
Br1681     Br  0.93054287  0.61670369  0.77503545    -0.02200
H1682       H  0.95540106  0.65914764  0.83464752     0.09900
H1683       H  0.76594256  0.65071039  0.84402403     0.08000
Br1684     Br  0.79054157  0.68874653  0.90767709    -0.02600
C1685       C  0.87723272  0.80237901  0.81574540    -0.09300
C1686       C  0.90022939  0.81321830  0.85186027     0.06900
C1687       C  0.90005050  0.84161230  0.85602017    -0.03000
C1688       C  0.87697922  0.85818611  0.82508016    -0.07500
C1689       C  0.85234471  0.84743504  0.78965040     0.06000
C1690       C  0.85216131  0.81885062  0.78566380    -0.02500
Br1691     Br  0.81579985  0.80024015  0.74203682    -0.02200
H1692       H  0.87606680  0.78071875  0.81209403     0.09900
H1693       H  0.87617094  0.87975592  0.82977058     0.08000
Br1694     Br  0.93016237  0.85937321  0.90343311    -0.02600
C1695       C  0.86633767  0.83726366  0.61943061    -0.09300
C1696       C  0.90161989  0.81835305  0.63533104     0.06900
C1697       C  0.92008039  0.82221290  0.67688747    -0.03000
C1698       C  0.89874650  0.84260382  0.70196048    -0.07500
C1699       C  0.85543331  0.85766753  0.68854302     0.06000
C1700       C  0.84592044  0.85748741  0.64442097    -0.02500
Br1701     Br  0.81901080  0.88722907  0.61217712    -0.02200
H1702       H  0.85556949  0.83719729  0.58642892     0.09900
H1703       H  0.91557200  0.84564165  0.73252239     0.08000
Br1704     Br  0.97254544  0.80028135  0.70269325    -0.02600
C1705       C  0.72276080  0.55136697  0.81515090    -0.09300
C1706       C  0.69933898  0.56673896  0.78291573     0.06900
C1707       C  0.64485419  0.56457520  0.77835929    -0.03000
C1708       C  0.61571360  0.54870275  0.80706641    -0.07500
C1709       C  0.63883990  0.53608290  0.84214577     0.06000
C1710       C  0.69328064  0.53619495  0.84445961    -0.02500
Br1711     Br  0.72942916  0.51612986  0.88716482    -0.02200
H1712       H  0.76423289  0.55246910  0.81911491     0.09900
H1713       H  0.57398931  0.54897726  0.80483181     0.08000
Br1714     Br  0.60534042  0.58791916  0.74222384    -0.02600
C1715       C  0.67662510  0.59272851  0.65717914    -0.09300
C1716       C  0.70730264  0.57782525  0.68584779     0.06900
C1717       C  0.70604581  0.54943180  0.68336415    -0.03000
C1718       C  0.67157068  0.53674910  0.65555009    -0.07500
C1719       C  0.63964222  0.55200140  0.62857515     0.06000
C1720       C  0.64317709  0.58018675  0.62911165    -0.02500
Br1721     Br  0.60038897  0.60260082  0.59394346    -0.02200
H1722       H  0.67628924  0.61442835  0.65765736     0.09900
H1723       H  0.67086067  0.51495733  0.65401419     0.08000
Br1724     Br  0.75411143  0.52732528  0.71362927    -0.02600
C1725       C  0.34980912  0.54316743  0.66257888    -0.09300
C1726       C  0.37833038  0.55747844  0.63154230     0.06900
C1727       C  0.37037108  0.58539568  0.62716267    -0.03000
C1728       C  0.33762642  0.59865362  0.65499288    -0.07500
C1729       C  0.31091640  0.58492522  0.68780035     0.06000
C1730       C  0.31513056  0.55648264  0.68966046    -0.02500
Br1731     Br  0.27033842  0.53454357  0.72429266    -0.02200
H1732       H  0.35273652  0.52141773  0.66448259     0.09900
H1733       H  0.33479010  0.62018539  0.65121674     0.08000
Br1734     Br  0.40460863  0.60699641  0.58451853    -0.02600
C1735       C  0.29400145  0.56612076  0.82299918    -0.09300
C1736       C  0.31851255  0.57862415  0.78811163     0.06900
C1737       C  0.37251064  0.57457816  0.78314341    -0.03000
C1738       C  0.39995720  0.55898606  0.81279720    -0.07500
C1739       C  0.37563808  0.54783078  0.84863772     0.06000
C1740       C  0.32175151  0.55100298  0.85296522    -0.02500
Br1741     Br  0.28376235  0.53501064  0.89916256    -0.02200
H1742       H  0.25295833  0.56895987  0.82782444     0.09900
H1743       H  0.44139582  0.55703896  0.80925068     0.08000
Br1744     Br  0.41415093  0.59201904  0.74083502    -0.02600
C1745       C  0.69158557  0.94681798  0.63886092    -0.09300
C1746       C  0.63798570  0.94278295  0.64302739     0.06900
C1747       C  0.61921624  0.92963300  0.67973218    -0.03000
C1748       C  0.65374032  0.91920576  0.70971718    -0.07500
C1749       C  0.70740515  0.92112980  0.70395295     0.06000
C1750       C  0.72599439  0.93658435  0.66933929    -0.02500
Br1751     Br  0.79762919  0.94593877  0.66456458    -0.02200
H1752       H  0.70672453  0.95806764  0.61190785     0.09900
H1753       H  0.63836437  0.90852417  0.73678148     0.08000
Br1754     Br  0.54710392  0.92277802  0.68833120    -0.02600
C1755       C  0.66711996  0.95175485  0.83451512    -0.09300
C1756       C  0.63226605  0.93503224  0.85693389     0.06900
C1757       C  0.63254173  0.90726977  0.84963041    -0.03000
C1758       C  0.66886475  0.89644279  0.82203613    -0.07500
C1759       C  0.70528381  0.91278168  0.80024147     0.06000
C1760       C  0.70344774  0.94088672  0.80635083    -0.02500
Br1761     Br  0.75101169  0.96511255  0.77897577    -0.02200
H1762       H  0.66682781  0.97326814  0.83965691     0.09900
H1763       H  0.66766157  0.87499428  0.81738280     0.08000
Br1764     Br  0.58246953  0.88343696  0.87528461    -0.02600
C1765       C  0.33582468  0.94664032  0.83672830    -0.09300
C1766       C  0.36675257  0.93158644  0.86465709     0.06900
C1767       C  0.36178478  0.90344849  0.86608302    -0.03000
C1768       C  0.32823972  0.89075408  0.83865158    -0.07500
C1769       C  0.29912218  0.90534268  0.80868885     0.06000
C1770       C  0.30135280  0.93376246  0.80935022    -0.02500
Br1771     Br  0.25508568  0.95583861  0.77702621    -0.02200
H1772       H  0.33740684  0.96845281  0.83712004     0.09900
H1773       H  0.32739976  0.86910341  0.83990445     0.08000
Br1774     Br  0.40235851  0.88092916  0.90283383    -0.02600
C1775       C  0.39449137  0.93039211  0.68392083    -0.09300
C1776       C  0.37160420  0.94337340  0.64921737     0.06900
C1777       C  0.31715445  0.94400840  0.64754355    -0.03000
C1778       C  0.28728942  0.92961341  0.67754822    -0.07500
C1779       C  0.31016041  0.91465994  0.71050647     0.06000
C1780       C  0.36484625  0.91602203  0.71413785    -0.02500
Br1781     Br  0.40371396  0.89572804  0.75461179    -0.02200
H1782       H  0.43608035  0.92985513  0.68600481     0.09900
H1783       H  0.24570511  0.92918262  0.67407864     0.08000
Br1784     Br  0.28139676  0.96466752  0.60536637    -0.02600
C1785       C  0.34239005  0.80037562  0.85814705    -0.09300
C1786       C  0.39529472  0.80395266  0.85216450     0.06900
C1787       C  0.41399589  0.81720372  0.81578803    -0.03000
C1788       C  0.37893787  0.82820296  0.78713588    -0.07500
C1789       C  0.32528814  0.82585334  0.79394281     0.06000
C1790       C  0.30747012  0.81077283  0.82933215    -0.02500
Br1791     Br  0.23707812  0.80189834  0.84059353    -0.02200
H1792       H  0.32809303  0.78927196  0.88560786     0.09900
H1793       H  0.39407509  0.83946996  0.76044554     0.08000
Br1794     Br  0.48644183  0.82268274  0.80569496    -0.02600
C1795       C  0.36160137  0.85009172  0.66894874    -0.09300
C1796       C  0.33240919  0.83340895  0.69634927     0.06900
C1797       C  0.33766672  0.80520598  0.69387513    -0.03000
C1798       C  0.37066971  0.79447717  0.66386079    -0.07500
C1799       C  0.39811693  0.81131348  0.63585235     0.06000
C1800       C  0.39469693  0.83931560  0.63909314    -0.02500
Br1801     Br  0.43570935  0.86352504  0.60480426    -0.02200
H1802       H  0.35830733  0.87166952  0.67015413     0.09900
H1803       H  0.37328464  0.77277226  0.66115396     0.08000
Br1804     Br  0.29834827  0.77982489  0.72686569    -0.02600
C1805       C  0.63835603  0.80044359  0.81439511    -0.09300
C1806       C  0.65293149  0.80263780  0.85679542     0.06900
C1807       C  0.70239488  0.81299622  0.86623353    -0.03000
C1808       C  0.73156128  0.82451890  0.83415923    -0.07500
C1809       C  0.71230139  0.82682998  0.79295870     0.06000
C1810       C  0.67106147  0.80957450  0.78236513    -0.02500
Br1811     Br  0.67653536  0.78387738  0.73787688    -0.02200
H1812       H  0.60468295  0.78870667  0.80590502     0.09900
H1813       H  0.76900806  0.83228707  0.84247713     0.08000
Br1814     Br  0.73464352  0.81256832  0.92092177    -0.02600
C1815       C  0.60987758  0.82550148  0.66719482    -0.09300
C1816       C  0.63540885  0.81028300  0.63678003     0.06900
C1817       C  0.68970249  0.80958308  0.63567651    -0.03000
C1818       C  0.71776283  0.82476686  0.66392697    -0.07500
C1819       C  0.69266228  0.83946859  0.69510076     0.06000
C1820       C  0.63811053  0.83999123  0.69674201    -0.02500
Br1821     Br  0.59985143  0.85782348  0.73992044    -0.02200
H1822       H  0.56806558  0.82602674  0.66799657     0.09900
H1823       H  0.75949578  0.82402426  0.66290380     0.08000
Br1824     Br  0.72771935  0.78627154  0.59924726    -0.02600
C1825       C  0.62885982  0.65918177  0.86392652    -0.09300
C1826       C  0.63368454  0.68689200  0.85977647     0.06900
C1827       C  0.66334026  0.69806446  0.82675703    -0.03000
C1828       C  0.68609791  0.68115982  0.79726404    -0.07500
C1829       C  0.68152993  0.65294890  0.80104969     0.06000
C1830       C  0.65356002  0.64218556  0.83627677    -0.02500
Br1831     Br  0.64747910  0.60550249  0.85368238    -0.02200
H1832       H  0.60650386  0.65062408  0.88998101     0.09900
H1833       H  0.70894349  0.69016524  0.77214658     0.08000
Br1834     Br  0.67937241  0.73557275  0.82392568    -0.02600
C1835       C  0.63653498  0.66689075  0.71206520    -0.09300
C1836       C  0.68794965  0.66047223  0.70099134     0.06900
C1837       C  0.70780884  0.67194953  0.66258803    -0.03000
C1838       C  0.67618261  0.68674565  0.63624333    -0.07500
C1839       C  0.62531014  0.69201102  0.64677618     0.06000
C1840       C  0.60674208  0.68422749  0.68693730    -0.02500
Br1841     Br  0.54379880  0.69777758  0.71045546    -0.02200
H1842       H  0.61868277  0.65841531  0.74015901     0.09900
H1843       H  0.69177219  0.69444134  0.60650990     0.08000
Br1844     Br  0.77574729  0.67018422  0.63935815    -0.02600
C1845       C  0.37469653  0.64918030  0.81851050    -0.09300
C1846       C  0.33742745  0.66309624  0.79486547     0.06900
C1847       C  0.33219854  0.69114271  0.79994380    -0.03000
C1848       C  0.36388519  0.70465335  0.82839346    -0.07500
C1849       C  0.39986190  0.69049742  0.85285346     0.06000
C1850       C  0.40585979  0.66264610  0.84734518    -0.02500
Br1851     Br  0.45587605  0.64225967  0.87870142    -0.02200
H1852       H  0.37878513  0.62764521  0.81531401     0.09900
H1853       H  0.35842948  0.72602875  0.83319491     0.08000
Br1854     Br  0.27782105  0.71138148  0.77412481    -0.02600
C1855       C  0.34249608  0.69898731  0.64123693    -0.09300
C1856       C  0.39314343  0.69035240  0.63649393     0.06900
C1857       C  0.41283745  0.66995851  0.66274547    -0.03000
C1858       C  0.38191243  0.65947598  0.69521445    -0.07500
C1859       C  0.32995497  0.66696671  0.69873012     0.06000
C1860       C  0.31032914  0.68686762  0.67105398    -0.02500
Br1861     Br  0.24069196  0.69863527  0.67068210    -0.02200
H1862       H  0.32742137  0.71466973  0.62056317     0.09900
H1863       H  0.39710755  0.64387512  0.71547944     0.08000
Br1864     Br  0.47748045  0.65293717  0.65090319    -0.02600
loop_ 
_geom_bond_atom_site_label_1 
_geom_bond_atom_site_label_2 
_geom_bond_distance 
_geom_bond_site_symmetry_2 
_ccdc_geom_bond_type 
O1          Zr13   2.412   1_554  S
O1            C3   1.282       .  A
O2          Zr39   2.387       .  S
O2            C3   1.278       .  A
C3          C458   1.435       .  S
O4         Zr482   2.418       .  S
O4            C6   1.285       .  A
O5          Zr40   2.392       .  S
O5            C6   1.279       .  A
C6          C428   1.451       .  S
O7          Zr16   2.434       .  S
O7            C9   1.290       .  A
O8          Zr39   2.382       .  S
O8            C9   1.275       .  A
C9          C441   1.461       .  S
O10        Zr479   2.442       .  S
O10          C12   1.287       .  A
O11         Zr40   2.417       .  S
O11          C12   1.283       .  A
C12         C451   1.463       .  S
Zr13        O476   2.445       .  S
Zr13         O14   2.436       .  S
Zr13        O481   2.436       .  S
Zr13         O19   2.370   1_556  S
Zr13         O45   2.380   1_556  S
Zr13        O486   2.358       .  S
Zr13        O509   2.361       .  S
O14          H57   0.990   1_556  S
O15        Zr479   2.436       .  S
O15         H522   0.990       .  S
O15         H526   0.990       .  S
Zr16        O470   2.417   1_554  S
Zr16         O17   2.435       .  S
Zr16        O484   2.436       .  S
Zr16         O19   2.348       .  S
Zr16         O44   2.363       .  S
Zr16        O486   2.365   1_554  S
Zr16        O512   2.368   1_554  S
O17          H61   0.990       .  S
O17         H524   0.990       .  S
O18        Zr482   2.435       .  S
O18         H517   0.990       .  S
O19         Zr39   2.378       .  S
O20         Zr40   2.385       .  S
O20        Zr479   2.366       .  S
O20        Zr482   2.367       .  S
O20          H47   0.966       .  S
O21         Zr33   2.412       .  S
O21          C23   1.284       .  A
O22         Zr40   2.399       .  S
O22          C23   1.280       .  A
C23         C388   1.450       .  S
O24        Zr502   2.381   1_554  S
O24          C26   1.276       .  A
O25         Zr39   2.428       .  S
O25          C26   1.286       .  A
C26         C418   1.452       .  S
O27         Zr36   2.391       .  S
O27          C29   1.276       .  A
O28         Zr40   2.407       .  S
O28          C29   1.284       .  A
C29         C408   1.466       .  S
O30        Zr499   2.437   1_554  S
O30          C32   1.286       .  A
O31         Zr39   2.382       .  S
O31          C32   1.278       .  A
C32         C401   1.453       .  S
Zr33        O496   2.439       .  S
Zr33         O35   2.434       .  S
Zr33        O500   2.433       .  S
Zr33         O41   2.365       .  S
Zr33         O43   2.376       .  S
Zr33        O508   2.357       .  S
Zr33        O511   2.366       .  S
O34        Zr499   2.435       .  S
O34         H520   0.990       .  S
O34         H525   0.990   1_556  S
O35          H55   0.990       .  S
Zr36        O490   2.388       .  S
Zr36         O37   2.434       .  S
Zr36        O504   2.434       .  S
Zr36         O41   2.365       .  S
Zr36         O46   2.350       .  S
Zr36        O508   2.366       .  S
Zr36        O510   2.356       .  S
O37         H519   0.990       .  S
O38        Zr502   2.434   1_554  S
O38         H518   0.990   1_554  S
O38         H528   0.989       .  S
Zr39         O42   2.368       .  S
Zr39         O44   2.371       .  S
Zr39         O45   2.386       .  S
Zr40         O41   2.378       .  S
Zr40         O43   2.375       .  S
Zr40         O46   2.367       .  S
O41          H49   0.966       .  S
O42        Zr499   2.357   1_554  S
O42        Zr502   2.370   1_554  S
O43        Zr479   2.358       .  S
O44        Zr502   2.358   1_554  S
O44          H48   0.966       .  S
O45        Zr499   2.369   1_554  S
O45          H50   0.966       .  S
O46        Zr482   2.367       .  S
H51         O484   0.990       .  S
H52         O504   0.990       .  S
H53         O503   0.990       .  S
H54         O500   0.990       .  S
H56         O481   0.990       .  S
H58         O483   0.990       .  S
H59         O500   0.990       .  S
H60         O481   0.990   1_554  S
H62         O504   0.989       .  S
O63         Zr75   2.461       .  S
O63          C65   1.291       .  A
O64        Zr101   2.456       .  S
O64          C65   1.292       .  A
C65         C378   1.497       .  S
O66        Zr544   2.461       .  S
O66          C68   1.291       .  A
O67        Zr102   2.425       .  S
O67          C68   1.286       .  A
C68         C358   1.477       .  S
O69         Zr78   2.467   1_554  S
O69          C71   1.292       .  A
O70        Zr101   2.440       .  S
O70          C71   1.289       .  A
C71         C348   1.488       .  S
O72        Zr541   2.426       .  S
O72          C74   1.285       .  A
O73        Zr102   2.426       .  S
O73          C74   1.286       .  A
C74         C368   1.465       .  S
Zr75        O538   2.434   1_554  S
Zr75         O76   2.433       .  S
Zr75        O543   2.436   1_554  S
Zr75         O81   2.373       .  S
Zr75        O107   2.366       .  S
Zr75        O548   2.381   1_554  S
Zr75        O571   2.378   1_554  S
O76         H119   0.990       .  S
O77        Zr541   2.436       .  S
O77         H584   0.990       .  S
O77         H588   0.990       .  S
Zr78        O532   2.463       .  S
Zr78         O79   2.437   1_556  S
Zr78        O546   2.433       .  S
Zr78         O81   2.379   1_556  S
Zr78        O106   2.368   1_556  S
Zr78        O548   2.379       .  S
Zr78        O574   2.372       .  S
O79         H123   0.990       .  S
O79         H586   0.990   1_554  S
O80        Zr544   2.433       .  S
O80         H579   0.990       .  S
O81        Zr101   2.393       .  S
O82        Zr102   2.405       .  S
O82        Zr541   2.383       .  S
O82        Zr544   2.379       .  S
O82         H109   0.966       .  S
O83         Zr95   2.441       .  S
O83          C85   1.288       .  A
O84       Zr1034   2.452   1_545  S
O84          C85   1.291       .  A
C85         C341   1.491       .  S
O86        Zr564   2.451   1_554  S
O86          C88   1.290       .  A
O87       Zr1033   2.435   1_545  S
O87          C88   1.289       .  A
C88         C321   1.477       .  S
O89         Zr98   2.476       .  S
O89          C91   1.294       .  A
O90       Zr1034   2.436   1_545  S
O90          C91   1.289       .  A
C91         C311   1.497       .  S
O92        Zr561   2.425   1_554  S
O92          C94   1.285       .  A
O93       Zr1033   2.460   1_545  S
O93          C94   1.293       .  A
C94         C328   1.485       .  S
Zr95        O558   2.432       .  S
Zr95        O562   2.437       .  S
Zr95        O563   2.433       .  S
Zr95        O103   2.374       .  S
Zr95        O570   2.378       .  S
Zr95       O1505   2.370   1_545  S
Zr95       O1037   2.368   1_545  S
O96        Zr561   2.437       .  S
O96         H582   0.990       .  S
O96         H587   0.990       .  S
O97        Zr561   2.433       .  S
O97         H583   0.990   1_556  S
Zr98        O552   2.449       .  S
Zr98         O99   2.434       .  S
Zr98        O566   2.437       .  S
Zr98        O103   2.372       .  S
Zr98        O570   2.389       .  S
Zr98       O1040   2.362   1_545  S
Zr98       O1504   2.368   1_545  S
O99         H581   0.990       .  S
O100       Zr564   2.434       .  S
O100        H580   0.990       .  S
O100        H590   0.990       .  S
Zr101      O1019   2.440       .  S
Zr101      O1025   2.457       .  S
Zr101       O106   2.399       .  S
Zr101       O107   2.387       .  S
Zr101      O1036   2.401       .  S
Zr102      O1016   2.449       .  S
Zr102      O1022   2.438       .  S
Zr102       O105   2.382       .  S
Zr102       O108   2.384       .  S
Zr102      O1035   2.387       .  S
O103      Zr1034   2.384   1_545  S
O103        H111   0.966       .  S
O104       Zr561   2.377   1_554  S
O104       Zr564   2.384   1_554  S
O104      Zr1033   2.400   1_545  S
O105       Zr541   2.375       .  S
O105      Zr1027   2.367       .  S
O106      Zr1496   2.372   1_554  S
O106        H110   0.965       .  S
O107      Zr1493   2.372   1_554  S
O107        H112   0.965       .  S
O108       Zr544   2.372       .  S
O108      Zr1030   2.361       .  S
H113        O546   0.990       .  S
H114        O566   0.990       .  S
H115        O565   0.990   1_554  S
H116        O562   0.990       .  S
H117        O563   0.990       .  S
H118        O543   0.990   1_554  S
H120        O545   0.990       .  S
H121        O562   0.990       .  S
H122        O543   0.990   1_554  S
H124        O566   0.990       .  S
O125       Zr137   2.459   1_554  S
O125        C127   1.292       .  A
O126       Zr163   2.436   1_655  S
O126        C127   1.287       .  A
C127        C298   1.502       .  S
O128       Zr606   2.440       .  S
O128        C130   1.288       .  A
O129       Zr164   2.445       .  S
O129        C130   1.291       .  A
C130        C278   1.480       .  S
O131       Zr140   2.462       .  S
O131        C133   1.292       .  A
O132       Zr163   2.457   1_655  S
O132        C133   1.293       .  A
C133        C271   1.498       .  S
O134       Zr603   2.462       .  S
O134        C136   1.291       .  A
O135       Zr164   2.466       .  S
O135        C136   1.295       .  A
C136        C288   1.507       .  S
Zr137       O600   2.460       .  S
Zr137       O138   2.435       .  S
Zr137       O605   2.438       .  S
Zr137       O143   2.375   1_556  S
Zr137       O169   2.375   1_556  S
Zr137       O610   2.372       .  S
Zr137       O633   2.372       .  S
O138        H181   0.990       .  S
O139       Zr603   2.437       .  S
O139        H646   0.990       .  S
O139        H650   0.990       .  S
Zr140       O594   2.443   1_554  S
Zr140       O141   2.434       .  S
Zr140       O608   2.432       .  S
Zr140       O143   2.380       .  S
Zr140       O168   2.359   1_655  S
Zr140       O610   2.382   1_554  S
Zr140       O636   2.373   1_654  S
O141        H185   0.990       .  S
O141        H648   0.990       .  S
O142       Zr606   2.432       .  S
O142        H641   0.990       .  S
O143       Zr163   2.398   1_655  S
O144       Zr164   2.403       .  S
O144       Zr603   2.369       .  S
O144       Zr606   2.388       .  S
O144        H171   0.966       .  S
O145       Zr157   2.440       .  S
O145        C147   1.287       .  A
O146       Zr164   2.459   1_455  S
O146        C147   1.294       .  A
C147        C238   1.499       .  S
O148       Zr626   2.468       .  S
O148        C150   1.294       .  A
O149       Zr163   2.443       .  S
O149        C150   1.289       .  A
C150        C261   1.502       .  S
O151       Zr160   2.449       .  S
O151        C153   1.289       .  A
O152       Zr164   2.447   1_455  S
O152        C153   1.290       .  A
C153        C251   1.483       .  S
O154       Zr623   2.430   1_554  S
O154        C156   1.286       .  A
O155       Zr163   2.445       .  S
O155        C156   1.290       .  A
C156        C231   1.472       .  S
Zr157       O620   2.434       .  S
Zr157       O158   2.434       .  S
Zr157       O625   2.434       .  S
Zr157       O165   2.373       .  S
Zr157       O167   2.367   1_455  S
Zr157       O632   2.381       .  S
Zr157       O635   2.361   1_455  S
O158        H178   0.990       .  S
O158        H183   0.989       .  S
O159       Zr623   2.432       .  S
O159        H645   0.990       .  S
Zr160       O614   2.473       .  S
Zr160       O161   2.434       .  S
Zr160       O628   2.437       .  S
Zr160       O165   2.385       .  S
Zr160       O170   2.374       .  S
Zr160       O632   2.376       .  S
Zr160       O634   2.357       .  S
O161        H643   0.990       .  S
O162       Zr626   2.437       .  S
O162        H642   0.990   1_554  S
O162        H652   0.990   1_554  S
Zr163       O166   2.395       .  S
Zr163       O168   2.386       .  S
Zr163       O169   2.397   1_455  S
Zr164       O165   2.402   1_655  S
Zr164       O167   2.379       .  S
Zr164       O170   2.399   1_655  S
O165        H173   0.966       .  S
O166       Zr623   2.384   1_554  S
O166       Zr626   2.372       .  S
O167       Zr603   2.369       .  S
O168       Zr626   2.359       .  S
O168        H172   0.964       .  S
O169       Zr623   2.362   1_654  S
O169        H174   0.964       .  S
O170       Zr606   2.377   1_455  S
H175        O608   0.990       .  S
H176        O628   0.990       .  S
H177        O627   0.990       .  S
H179        O625   0.990       .  S
H180        O605   0.990   1_554  S
H182        O607   0.990       .  S
H184        O605   0.990   1_554  S
H186        O628   0.990       .  S
C187        H188   1.109       .  S
C187        C193   1.553       .  S
C187        C192   1.543       .  S
C187        C191   1.534       .  S
C189        H190   1.112       .  S
C189        C195   1.553       .  S
C189        C194   1.530       .  S
C189        C196   1.546       .  S
C191        C194   1.365       .  D
C191        C461   1.469       .  S
C192        C195   1.389       .  D
C192        C258   1.509       .  S
C193        C196   1.385       .  D
C193        C331   1.510       .  S
C194        C448   1.478       .  S
C195        C248   1.509       .  S
C196        C338   1.508       .  S
C197        H198   1.099       .  S
C197        C203   1.547       .  S
C197        C202   1.543       .  S
C197        C201   1.543       .  S
C199        H200   1.105       .  S
C199        C205   1.547       .  S
C199        C204   1.542       .  S
C199        C206   1.550       .  S
C201        C204   1.395       .  D
C201        C438   1.507       .  S
C202        C205   1.378       .  D
C202        C318   1.510       .  S
C203        C206   1.380       .  D
C203        C268   1.508       .  S
C204        C431   1.492       .  S
C205        C308   1.510       .  S
C206        C281   1.515       .  S
C207        H208   1.112       .  S
C207        C213   1.546       .  S
C207        C212   1.537       .  S
C207        C211   1.535       .  S
C209        H210   1.109       .  S
C209        C215   1.553       .  S
C209        C214   1.538       .  S
C209        C216   1.544       .  S
C211        C214   1.373       .  D
C211        C398   1.477       .  S
C212        C215   1.384       .  D
C212        C381   1.516       .  S
C213        C216   1.382       .  D
C213        C228   1.497       .  S
C214        C391   1.485       .  S
C215        C371   1.498       .  S
C216        C241   1.511       .  S
C217        H218   1.106       .  S
C217        C223   1.537       .  S
C217        C222   1.548       .  S
C217        C221   1.541       .  S
C219        H220   1.095       .  S
C219        C225   1.538       .  S
C219        C224   1.539       .  S
C219        C226   1.570       .  S
C221        C224   1.375       .  D
C221        C411   1.504       .  S
C222        C225   1.375       .  D
C222        C361   1.506       .  S
C223        C226   1.400       .  D
C223        C291   1.520       .  S
C224        C421   1.463       .  S
C225        C351   1.508       .  S
C226        C301   1.537       .  S
C227        C228   1.410       .  A
C227        C232   1.387       .  A
C227        H234   1.078       .  S
C228        C229   1.413       .  A
C229        C230   1.409       .  A
C229       Br236   1.918       .  S
C230        C231   1.408       .  A
C230        H235   1.082       .  S
C231        C232   1.401       .  A
C232       Br233   1.922       .  S
C237        C238   1.401       .  A
C237        C242   1.405       .  A
C237        H244   1.084       .  S
C238        C239   1.417       .  A
C239        C240   1.404       .  A
C239       Br246   1.919       .  S
C240        C241   1.405       .  A
C240        H245   1.084       .  S
C241        C242   1.425       .  A
C242       Br243   1.909       .  S
C247        C248   1.408       .  A
C247        C252   1.393       .  A
C247        H254   1.076       .  S
C248        C249   1.415       .  A
C249        C250   1.414       .  A
C249       Br256   1.917       .  S
C250        C251   1.409       .  A
C250        H255   1.082       .  S
C251        C252   1.404       .  A
C252       Br253   1.923       .  S
C257        C258   1.409       .  A
C257        C262   1.407       .  A
C257        H264   1.079       .  S
C258        C259   1.413       .  A
C259        C260   1.403       .  A
C259       Br266   1.922       .  S
C260        C261   1.408       .  A
C260        H265   1.083       .  S
C261        C262   1.418       .  A
C262       Br263   1.920       .  S
C267        C268   1.404       .  A
C267        C272   1.405       .  A
C267        H274   1.084       .  S
C268        C269   1.423       .  A
C269        C270   1.409       .  A
C269       Br276   1.912       .  S
C270        C271   1.404       .  A
C270        H275   1.084       .  S
C271        C272   1.416       .  A
C272       Br273   1.917       .  S
C277        C278   1.406       .  A
C277        C282   1.412       .  A
C277        H284   1.082       .  S
C278        C279   1.404       .  A
C279        C280   1.391       .  A
C279       Br286   1.923       .  S
C280        C281   1.411       .  A
C280        H285   1.074       .  S
C281        C282   1.417       .  A
C282       Br283   1.916       .  S
C287        C288   1.404       .  A
C287        C292   1.410       .  A
C287        H294   1.083       .  S
C288        C289   1.418       .  A
C289        C290   1.409       .  A
C289       Br296   1.919       .  S
C290        C291   1.406       .  A
C290        H295   1.084       .  S
C291        C292   1.427       .  A
C292       Br293   1.920       .  S
C297        C298   1.404       .  A
C297        C302   1.394       .  A
C297        H304   1.082       .  S
C298        C299   1.418       .  A
C299        C300   1.410       .  A
C299       Br306   1.923       .  S
C300        C301   1.414       .  A
C300        H305   1.075       .  S
C301        C302   1.420       .  A
C302       Br303   1.918       .  S
C307        C308   1.407       .  A
C307        C312   1.407       .  A
C307        H314   1.083       .  S
C308        C309   1.424       .  A
C309        C310   1.408       .  A
C309       Br316   1.918       .  S
C310        C311   1.404       .  A
C310        H315   1.084       .  S
C311        C312   1.412       .  A
C312       Br313   1.918       .  S
C317        C318   1.413       .  A
C317        C322   1.394       .  A
C317        H324   1.076       .  S
C318        C319   1.412       .  A
C319        C320   1.409       .  A
C319       Br326   1.912       .  S
C320        C321   1.407       .  A
C320        H325   1.084       .  S
C321        C322   1.402       .  A
C322       Br323   1.921       .  S
C327        C328   1.408       .  A
C327        C332   1.411       .  A
C327        H334   1.084       .  S
C328        C329   1.409       .  A
C329        C330   1.392       .  A
C329       Br336   1.924       .  S
C330        C331   1.409       .  A
C330        H335   1.076       .  S
C331        C332   1.416       .  A
C332       Br333   1.917       .  S
C337        C338   1.405       .  A
C337        C342   1.402       .  A
C337        H344   1.084       .  S
C338        C339   1.423       .  A
C339        C340   1.406       .  A
C339       Br346   1.912       .  S
C340        C341   1.401       .  A
C340        H345   1.084       .  S
C341        C342   1.412       .  A
C342       Br343   1.918       .  S
C347        C348   1.406       .  A
C347        C352   1.406       .  A
C347        H354   1.084       .  S
C348        C349   1.408       .  A
C349        C350   1.405       .  A
C349       Br356   1.916       .  S
C350        C351   1.406       .  A
C350        H355   1.075       .  S
C351        C352   1.409       .  A
C352       Br353   1.914       .  S
C357        C358   1.406       .  A
C357        C362   1.409       .  A
C357        H364   1.083       .  S
C358        C359   1.401       .  A
C359        C360   1.396       .  A
C359       Br366   1.920       .  S
C360        C361   1.411       .  A
C360        H365   1.078       .  S
C361        C362   1.412       .  A
C362       Br363   1.914       .  S
C367        C368   1.405       .  A
C367        C372   1.405       .  A
C367        H374   1.084       .  S
C368        C369   1.401       .  A
C369        C370   1.388       .  A
C369       Br376   1.923       .  S
C370        C371   1.411       .  A
C370        H375   1.074       .  S
C371        C372   1.411       .  A
C372       Br373   1.916       .  S
C377        C378   1.400       .  A
C377        C382   1.407       .  A
C377        H384   1.080       .  S
C378        C379   1.412       .  A
C379        C380   1.407       .  A
C379       Br386   1.917       .  S
C380        C381   1.408       .  A
C380        H385   1.083       .  S
C381        C382   1.424       .  A
C382       Br383   1.911       .  S
C387        C388   1.393       .  A
C387        C392   1.383       .  A
C387        H394   1.085       .  S
C388        C389   1.401       .  A
C389        C390   1.393       .  A
C389       Br396   1.918       .  S
C390        C391   1.409       .  A
C390        H395   1.078       .  S
C391        C392   1.411       .  A
C392       Br393   1.905       .  S
C397        C398   1.403       .  A
C397        C402   1.387       .  A
C397        H404   1.078       .  S
C398        C399   1.412       .  A
C399        C400   1.391       .  A
C399       Br406   1.913       .  S
C400        C401   1.400       .  A
C400        H405   1.084       .  S
C401        C402   1.400       .  A
C402       Br403   1.919       .  S
C407        C408   1.404       .  A
C407        C412   1.390       .  A
C407        H414   1.083       .  S
C408        C409   1.415       .  A
C409        C410   1.380       .  A
C409       Br416   1.924       .  S
C410        C411   1.402       .  A
C410        H415   1.077       .  S
C411        C412   1.408       .  A
C412       Br413   1.920       .  S
C417        C418   1.398       .  A
C417        C422   1.395       .  A
C417        H424   1.084       .  S
C418        C419   1.410       .  A
C419        C420   1.384       .  A
C419       Br426   1.920       .  S
C420        C421   1.396       .  A
C420        H425   1.082       .  S
C421        C422   1.415       .  A
C422       Br423   1.914       .  S
C427        C428   1.385       .  A
C427        C432   1.380       .  A
C427        H434   1.086       .  S
C428        C429   1.399       .  A
C429        C430   1.393       .  A
C429       Br436   1.902       .  S
C430        C431   1.408       .  A
C430        H435   1.079       .  S
C431        C432   1.422       .  A
C432       Br433   1.900       .  S
C437        C438   1.416       .  A
C437        C442   1.401       .  A
C437        H444   1.080       .  S
C438        C439   1.426       .  A
C439        C440   1.377       .  A
C439       Br446   1.909       .  S
C440        C441   1.385       .  A
C440        H445   1.086       .  S
C441        C442   1.405       .  A
C442       Br443   1.918       .  S
C447        C448   1.402       .  A
C447        C452   1.396       .  A
C447        H454   1.080       .  S
C448        C449   1.410       .  A
C449        C450   1.396       .  A
C449       Br456   1.914       .  S
C450        C451   1.399       .  A
C450        H455   1.084       .  S
C451        C452   1.405       .  A
C452       Br453   1.919       .  S
C457        C458   1.389       .  A
C457        C462   1.383       .  A
C457        H464   1.085       .  S
C458        C459   1.398       .  A
C459        C460   1.391       .  A
C459       Br466   1.920       .  S
C460        C461   1.402       .  A
C460        H465   1.075       .  S
C461        C462   1.409       .  A
C462       Br463   1.897       .  S
O467       Zr479   2.418       .  S
O467        C469   1.283       .  A
O468       Zr505   2.391       .  S
O468        C469   1.279       .  A
C469        C924   1.440       .  S
O470        C472   1.285       .  A
O471       Zr506   2.388       .  S
O471        C472   1.279       .  A
C472        C894   1.448       .  S
O473       Zr482   2.438       .  S
O473        C475   1.290       .  A
O474       Zr505   2.381       .  S
O474        C475   1.275       .  A
C475        C907   1.462       .  S
O476        C478   1.288       .  A
O477       Zr506   2.410       .  S
O477        C478   1.282       .  A
C478        C917   1.463       .  S
Zr479       O480   2.436       .  S
Zr479       O485   2.373       .  S
Zr479       O511   2.374       .  S
O480        H523   0.990       .  S
Zr482       O483   2.434       .  S
Zr482       O485   2.350       .  S
Zr482       O510   2.361       .  S
O483        H527   0.990       .  S
O485       Zr505   2.380       .  S
O486       Zr506   2.379       .  S
O486        H513   0.966       .  S
O487       Zr499   2.414       .  S
O487        C489   1.284       .  A
O488       Zr506   2.392       .  S
O488        C489   1.279       .  A
C489        C854   1.449       .  S
O490        C492   1.278       .  A
O491       Zr505   2.426       .  S
O491        C492   1.286       .  A
C492        C884   1.452       .  S
O493       Zr502   2.394       .  S
O493        C495   1.277       .  A
O494       Zr506   2.392       .  S
O494        C495   1.281       .  A
C495        C874   1.460       .  S
O496        C498   1.287       .  A
O497       Zr505   2.375       .  S
O497        C498   1.277       .  A
C498        C867   1.451       .  S
Zr499       O501   2.435       .  S
Zr499       O507   2.361       .  S
Zr499       O509   2.378       .  S
O501        H521   0.990   1_556  S
Zr502       O503   2.435       .  S
Zr502       O507   2.363       .  S
Zr502       O512   2.350       .  S
Zr505       O508   2.367       .  S
Zr505       O510   2.366       .  S
Zr505       O511   2.383       .  S
Zr506       O507   2.376       .  S
Zr506       O509   2.373       .  S
Zr506       O512   2.368       .  S
O507        H515   0.966       .  S
O510        H514   0.966       .  S
O511        H516   0.966       .  S
O529       Zr541   2.458       .  S
O529        C531   1.291       .  A
O530       Zr567   2.453       .  S
O530        C531   1.292       .  A
C531        C844   1.495       .  S
O532        C534   1.292       .  A
O533       Zr568   2.421       .  S
O533        C534   1.285       .  A
C534        C824   1.477       .  S
O535       Zr544   2.469       .  S
O535        C537   1.292       .  A
O536       Zr567   2.441       .  S
O536        C537   1.290       .  A
C537        C814   1.490       .  S
O538        C540   1.287       .  A
O539       Zr568   2.423       .  S
O539        C540   1.286       .  A
C540        C834   1.467       .  S
Zr541       O542   2.435       .  S
Zr541       O547   2.378       .  S
Zr541       O573   2.362       .  S
O542        H585   0.990       .  S
Zr544       O545   2.437       .  S
Zr544       O547   2.383       .  S
Zr544       O572   2.365       .  S
O545        H589   0.990       .  S
O547       Zr567   2.396       .  S
O548       Zr568   2.404       .  S
O548        H575   0.966       .  S
O549       Zr561   2.442       .  S
O549        C551   1.288       .  A
O550      Zr1500   2.445   1_545  S
O550        C551   1.290       .  A
C551        C807   1.487       .  S
O552        C554   1.290       .  A
O553      Zr1499   2.437   1_545  S
O553        C554   1.289       .  A
C554        C787   1.477       .  S
O555       Zr564   2.473       .  S
O555        C557   1.294       .  A
O556      Zr1500   2.436   1_545  S
O556        C557   1.288       .  A
C557        C777   1.496       .  S
O558        C560   1.286       .  A
O559      Zr1499   2.468   1_545  S
O559        C560   1.294       .  A
C560        C794   1.491       .  S
Zr561       O569   2.372       .  S
Zr561      O1039   2.371   1_546  S
Zr561      O1503   2.365   1_545  S
Zr564       O565   2.436       .  S
Zr564       O569   2.370       .  S
Zr564      O1506   2.365   1_545  S
Zr564      O1038   2.368   1_546  S
Zr567      O1485   2.438       .  S
Zr567      O1491   2.457       .  S
Zr567      O1502   2.401       .  S
Zr567       O572   2.397       .  S
Zr567       O573   2.385       .  S
Zr568      O1482   2.452       .  S
Zr568      O1488   2.435       .  S
Zr568      O1501   2.383       .  S
Zr568       O571   2.380       .  S
Zr568       O574   2.385       .  S
O569      Zr1500   2.385   1_545  S
O569        H577   0.966       .  S
O570      Zr1499   2.400   1_545  S
O571      Zr1493   2.366       .  S
O572      Zr1030   2.371       .  S
O572        H576   0.964       .  S
O573      Zr1027   2.370       .  S
O573        H578   0.965       .  S
O574      Zr1496   2.361       .  S
O591       Zr603   2.449       .  S
O591        C593   1.290       .  A
O592       Zr629   2.432   1_655  S
O592        C593   1.286       .  A
C593        C764   1.498       .  S
O594        C596   1.289       .  A
O595       Zr630   2.446       .  S
O595        C596   1.291       .  A
C596        C744   1.482       .  S
O597       Zr606   2.467       .  S
O597        C599   1.293       .  A
O598       Zr629   2.450   1_655  S
O598        C599   1.292       .  A
C599        C737   1.497       .  S
O600        C602   1.291       .  A
O601       Zr630   2.462       .  S
O601        C602   1.294       .  A
C602        C754   1.505       .  S
Zr603       O604   2.436       .  S
Zr603       O609   2.379       .  S
Zr603       O635   2.380       .  S
O604        H647   0.990       .  S
Zr606       O607   2.434       .  S
Zr606       O609   2.378       .  S
Zr606       O634   2.358   1_655  S
O607        H651   0.990       .  S
O609       Zr629   2.401   1_655  S
O610       Zr630   2.399       .  S
O610        H637   0.966       .  S
O611       Zr623   2.443       .  S
O611        C613   1.287       .  A
O612       Zr630   2.459   1_455  S
O612        C613   1.294       .  A
C613        C704   1.500       .  S
O614        C616   1.295       .  A
O615       Zr629   2.435       .  S
O615        C616   1.287       .  A
C616        C727   1.502       .  S
O617       Zr626   2.447   1_556  S
O617        C619   1.289       .  A
O618       Zr630   2.447   1_455  S
O618        C619   1.291       .  A
C619        C717   1.482       .  S
O620        C622   1.286       .  A
O621       Zr629   2.451       .  S
O621        C622   1.290       .  A
C622        C697   1.478       .  S
Zr623       O624   2.437       .  S
Zr623       O631   2.368       .  S
Zr623       O633   2.365   1_455  S
O624        H644   0.990       .  S
O624        H649   0.990       .  S
Zr626       O627   2.435       .  S
Zr626       O631   2.382   1_554  S
Zr626       O636   2.375   1_554  S
Zr629       O632   2.395       .  S
Zr629       O634   2.388       .  S
Zr629       O635   2.394   1_455  S
Zr630       O631   2.397   1_655  S
Zr630       O633   2.381       .  S
Zr630       O636   2.394   1_655  S
O631        H639   0.966       .  S
O634        H638   0.964       .  S
O635        H640   0.965       .  S
C653        H654   1.109       .  S
C653        C659   1.554       .  S
C653        C658   1.544       .  S
C653        C657   1.535       .  S
C655        H656   1.112       .  S
C655        C661   1.554       .  S
C655        C660   1.533       .  S
C655        C662   1.548       .  S
C657        C660   1.365       .  D
C657        C927   1.472       .  S
C658        C661   1.387       .  D
C658        C724   1.509       .  S
C659        C662   1.384       .  D
C659        C797   1.514       .  S
C660        C914   1.480       .  S
C661        C714   1.507       .  S
C662        C804   1.503       .  S
C663        H664   1.101       .  S
C663        C669   1.548       .  S
C663        C668   1.541       .  S
C663        C667   1.544       .  S
C665        H666   1.104       .  S
C665        C671   1.545       .  S
C665        C670   1.541       .  S
C665        C672   1.548       .  S
C667        C670   1.395       .  D
C667        C904   1.508       .  S
C668        C671   1.378       .  D
C668        C784   1.508       .  S
C669        C672   1.381       .  D
C669        C734   1.506       .  S
C670        C897   1.491       .  S
C671        C774   1.508       .  S
C672        C747   1.517       .  S
C673        H674   1.112       .  S
C673        C679   1.545       .  S
C673        C678   1.539       .  S
C673        C677   1.534       .  S
C675        H676   1.109       .  S
C675        C681   1.553       .  S
C675        C680   1.539       .  S
C675        C682   1.544       .  S
C677        C680   1.375       .  D
C677        C864   1.477       .  S
C678        C681   1.383       .  D
C678        C847   1.511       .  S
C679        C682   1.381       .  D
C679        C694   1.498       .  S
C680        C857   1.484       .  S
C681        C837   1.501       .  S
C682        C707   1.511       .  S
C683        H684   1.107       .  S
C683        C689   1.539       .  S
C683        C688   1.549       .  S
C683        C687   1.540       .  S
C685        H686   1.095       .  S
C685        C691   1.539       .  S
C685        C690   1.536       .  S
C685        C692   1.569       .  S
C687        C690   1.374       .  D
C687        C877   1.499       .  S
C688        C691   1.376       .  D
C688        C827   1.508       .  S
C689        C692   1.401       .  D
C689        C757   1.521       .  S
C690        C887   1.460       .  S
C691        C817   1.510       .  S
C692        C767   1.537       .  S
C693        C694   1.409       .  A
C693        C698   1.390       .  A
C693        H700   1.079       .  S
C694        C695   1.413       .  A
C695        C696   1.410       .  A
C695       Br702   1.918       .  S
C696        C697   1.408       .  A
C696        H701   1.082       .  S
C697        C698   1.404       .  A
C698       Br699   1.920       .  S
C703        C704   1.402       .  A
C703        C708   1.406       .  A
C703        H710   1.084       .  S
C704        C705   1.418       .  A
C705        C706   1.404       .  A
C705       Br712   1.918       .  S
C706        C707   1.404       .  A
C706        H711   1.084       .  S
C707        C708   1.425       .  A
C708       Br709   1.908       .  S
C713        C714   1.407       .  A
C713        C718   1.391       .  A
C713        H720   1.076       .  S
C714        C715   1.415       .  A
C715        C716   1.414       .  A
C715       Br722   1.917       .  S
C716        C717   1.409       .  A
C716        H721   1.082       .  S
C717        C718   1.403       .  A
C718       Br719   1.923       .  S
C723        C724   1.410       .  A
C723        C728   1.409       .  A
C723        H730   1.080       .  S
C724        C725   1.412       .  A
C725        C726   1.401       .  A
C725       Br732   1.922       .  S
C726        C727   1.408       .  A
C726        H731   1.083       .  S
C727        C728   1.420       .  A
C728       Br729   1.922       .  S
C733        C734   1.406       .  A
C733        C738   1.406       .  A
C733        H740   1.084       .  S
C734        C735   1.422       .  A
C735        C736   1.407       .  A
C735       Br742   1.914       .  S
C736        C737   1.404       .  A
C736        H741   1.084       .  S
C737        C738   1.415       .  A
C738       Br739   1.918       .  S
C743        C744   1.408       .  A
C743        C748   1.413       .  A
C743        H750   1.082       .  S
C744        C745   1.404       .  A
C745        C746   1.392       .  A
C745       Br752   1.924       .  S
C746        C747   1.412       .  A
C746        H751   1.073       .  S
C747        C748   1.417       .  A
C748       Br749   1.916       .  S
C753        C754   1.403       .  A
C753        C758   1.409       .  A
C753        H760   1.084       .  S
C754        C755   1.418       .  A
C755        C756   1.410       .  A
C755       Br762   1.920       .  S
C756        C757   1.406       .  A
C756        H761   1.083       .  S
C757        C758   1.428       .  A
C758       Br759   1.920       .  S
C763        C764   1.403       .  A
C763        C768   1.394       .  A
C763        H770   1.082       .  S
C764        C765   1.417       .  A
C765        C766   1.409       .  A
C765       Br772   1.923       .  S
C766        C767   1.414       .  A
C766        H771   1.075       .  S
C767        C768   1.420       .  A
C768       Br769   1.918       .  S
C773        C774   1.406       .  A
C773        C778   1.405       .  A
C773        H780   1.083       .  S
C774        C775   1.423       .  A
C775        C776   1.408       .  A
C775       Br782   1.919       .  S
C776        C777   1.405       .  A
C776        H781   1.084       .  S
C777        C778   1.413       .  A
C778       Br779   1.917       .  S
C783        C784   1.413       .  A
C783        C788   1.396       .  A
C783        H790   1.077       .  S
C784        C785   1.412       .  A
C785        C786   1.408       .  A
C785       Br792   1.914       .  S
C786        C787   1.406       .  A
C786        H791   1.084       .  S
C787        C788   1.403       .  A
C788       Br789   1.922       .  S
C793        C794   1.410       .  A
C793        C798   1.414       .  A
C793        H800   1.084       .  S
C794        C795   1.409       .  A
C795        C796   1.393       .  A
C795       Br802   1.922       .  S
C796        C797   1.408       .  A
C796        H801   1.077       .  S
C797        C798   1.419       .  A
C798       Br799   1.918       .  S
C803        C804   1.405       .  A
C803        C808   1.402       .  A
C803        H810   1.084       .  S
C804        C805   1.421       .  A
C805        C806   1.404       .  A
C805       Br812   1.911       .  S
C806        C807   1.400       .  A
C806        H811   1.084       .  S
C807        C808   1.411       .  A
C808       Br809   1.919       .  S
C813        C814   1.407       .  A
C813        C818   1.408       .  A
C813        H820   1.083       .  S
C814        C815   1.408       .  A
C815        C816   1.404       .  A
C815       Br822   1.915       .  S
C816        C817   1.406       .  A
C816        H821   1.075       .  S
C817        C818   1.410       .  A
C818       Br819   1.914       .  S
C823        C824   1.406       .  A
C823        C828   1.408       .  A
C823        H830   1.083       .  S
C824        C825   1.400       .  A
C825        C826   1.397       .  A
C825       Br832   1.920       .  S
C826        C827   1.413       .  A
C826        H831   1.078       .  S
C827        C828   1.412       .  A
C828       Br829   1.913       .  S
C833        C834   1.406       .  A
C833        C838   1.406       .  A
C833        H840   1.084       .  S
C834        C835   1.400       .  A
C835        C836   1.388       .  A
C835       Br842   1.924       .  S
C836        C837   1.411       .  A
C836        H841   1.073       .  S
C837        C838   1.413       .  A
C838       Br839   1.916       .  S
C843        C844   1.400       .  A
C843        C848   1.405       .  A
C843        H850   1.080       .  S
C844        C845   1.412       .  A
C845        C846   1.405       .  A
C845       Br852   1.917       .  S
C846        C847   1.406       .  A
C846        H851   1.084       .  S
C847        C848   1.423       .  A
C848       Br849   1.913       .  S
C853        C854   1.392       .  A
C853        C858   1.382       .  A
C853        H860   1.085       .  S
C854        C855   1.402       .  A
C855        C856   1.394       .  A
C855       Br862   1.919       .  S
C856        C857   1.409       .  A
C856        H861   1.079       .  S
C857        C858   1.412       .  A
C858       Br859   1.905       .  S
C863        C864   1.405       .  A
C863        C868   1.388       .  A
C863        H870   1.077       .  S
C864        C865   1.410       .  A
C865        C866   1.390       .  A
C865       Br872   1.911       .  S
C866        C867   1.399       .  A
C866        H871   1.085       .  S
C867        C868   1.399       .  A
C868       Br869   1.920       .  S
C873        C874   1.404       .  A
C873        C878   1.388       .  A
C873        H880   1.083       .  S
C874        C875   1.411       .  A
C875        C876   1.378       .  A
C875       Br882   1.923       .  S
C876        C877   1.402       .  A
C876        H881   1.077       .  S
C877        C878   1.407       .  A
C878       Br879   1.920       .  S
C883        C884   1.399       .  A
C883        C888   1.395       .  A
C883        H890   1.084       .  S
C884        C885   1.408       .  A
C885        C886   1.383       .  A
C885       Br892   1.919       .  S
C886        C887   1.396       .  A
C886        H891   1.082       .  S
C887        C888   1.413       .  A
C888       Br889   1.914       .  S
C893        C894   1.383       .  A
C893        C898   1.379       .  A
C893        H900   1.086       .  S
C894        C895   1.399       .  A
C895        C896   1.393       .  A
C895       Br902   1.904       .  S
C896        C897   1.408       .  A
C896        H901   1.081       .  S
C897        C898   1.424       .  A
C898       Br899   1.902       .  S
C903        C904   1.416       .  A
C903        C908   1.403       .  A
C903        H910   1.079       .  S
C904        C905   1.425       .  A
C905        C906   1.377       .  A
C905       Br912   1.905       .  S
C906        C907   1.385       .  A
C906        H911   1.086       .  S
C907        C908   1.406       .  A
C908       Br909   1.919       .  S
C913        C914   1.401       .  A
C913        C918   1.395       .  A
C913        H920   1.081       .  S
C914        C915   1.411       .  A
C915        C916   1.397       .  A
C915       Br922   1.915       .  S
C916        C917   1.399       .  A
C916        H921   1.084       .  S
C917        C918   1.405       .  A
C918       Br919   1.919       .  S
C923        C924   1.389       .  A
C923        C928   1.383       .  A
C923        H930   1.085       .  S
C924        C925   1.399       .  A
C925        C926   1.392       .  A
C925       Br932   1.918       .  S
C926        C927   1.402       .  A
C926        H931   1.075       .  S
C927        C928   1.408       .  A
C928       Br929   1.896       .  S
O933       Zr945   2.419   1_554  S
O933        C935   1.284       .  A
O934       Zr971   2.387       .  S
O934        C935   1.278       .  A
C935       C1390   1.440       .  S
O936      Zr1414   2.418       .  S
O936        C938   1.285       .  A
O937       Zr972   2.396       .  S
O937        C938   1.280       .  A
C938       C1360   1.449       .  S
O939       Zr948   2.436       .  S
O939        C941   1.290       .  A
O940       Zr971   2.375       .  S
O940        C941   1.274       .  A
C941       C1373   1.459       .  S
O942      Zr1411   2.440       .  S
O942        C944   1.286       .  A
O943       Zr972   2.411       .  S
O943        C944   1.282       .  A
C944       C1383   1.461       .  S
Zr945      O1408   2.442       .  S
Zr945       O946   2.434       .  S
Zr945      O1413   2.434       .  S
Zr945       O951   2.369   1_556  S
Zr945      O1418   2.364       .  S
Zr945      O1441   2.358       .  S
Zr945       O977   2.373   1_556  S
O946        H989   0.990       .  S
O947      Zr1411   2.437       .  S
O947       H1454   0.990       .  S
O947       H1458   0.990       .  S
Zr948      O1402   2.428   1_554  S
Zr948       O949   2.436       .  S
Zr948      O1416   2.435       .  S
Zr948      O1418   2.366   1_554  S
Zr948       O951   2.353       .  S
Zr948       O976   2.365       .  S
Zr948      O1444   2.365   1_554  S
O949       H1456   0.990       .  S
O949        H993   0.990   1_554  S
O950      Zr1414   2.435       .  S
O950       H1449   0.990       .  S
O951       Zr971   2.381       .  S
O952      Zr1411   2.364       .  S
O952      Zr1414   2.367       .  S
O952       Zr972   2.381       .  S
O952        H979   0.966       .  S
O953       Zr965   2.416       .  S
O953        C955   1.284       .  A
O954       Zr972   2.393       .  S
O954        C955   1.279       .  A
C955       C1320   1.449       .  S
O956      Zr1434   2.390   1_554  S
O956        C958   1.278       .  A
O957       Zr971   2.426       .  S
O957        C958   1.285       .  A
C958       C1350   1.454       .  S
O959       Zr968   2.393       .  S
O959        C961   1.276       .  A
O960       Zr972   2.400       .  S
O960        C961   1.282       .  A
C961       C1340   1.465       .  S
O962      Zr1431   2.431   1_554  S
O962        C964   1.285       .  A
O963       Zr971   2.379       .  S
O963        C964   1.277       .  A
C964       C1333   1.449       .  S
Zr965      O1428   2.431       .  S
Zr965      O1432   2.432       .  S
Zr965       O967   2.437       .  S
Zr965       O973   2.366       .  S
Zr965      O1440   2.361       .  S
Zr965      O1443   2.364       .  S
Zr965       O975   2.374       .  S
O966      Zr1431   2.436       .  S
O966       H1452   0.990       .  S
O966       H1457   0.990       .  S
O967        H987   0.990       .  S
Zr968      O1422   2.391       .  S
Zr968       O969   2.434       .  S
Zr968      O1436   2.435       .  S
Zr968      O1440   2.366       .  S
Zr968       O973   2.365       .  S
Zr968       O978   2.352       .  S
Zr968      O1442   2.355       .  S
O969       H1451   0.990       .  S
O970      Zr1434   2.434   1_554  S
O970       H1450   0.990   1_554  S
O970       H1460   0.989       .  S
Zr971       O974   2.367       .  S
Zr971       O976   2.366       .  S
Zr971       O977   2.381       .  S
Zr972       O973   2.379       .  S
Zr972       O975   2.375       .  S
Zr972       O978   2.366       .  S
O973        H981   0.967       .  S
O974      Zr1431   2.361   1_554  S
O974      Zr1434   2.366   1_554  S
O975      Zr1411   2.359       .  S
O976      Zr1434   2.350   1_554  S
O976        H980   0.966       .  S
O977      Zr1431   2.366   1_554  S
O977        H982   0.966       .  S
O978      Zr1414   2.368       .  S
H983       O1416   0.990   1_556  S
H984       O1436   0.990       .  S
H985       O1435   0.990   1_554  S
H986       O1432   0.990       .  S
H988       O1413   0.990       .  S
H990       O1415   0.990       .  S
H991       O1432   0.990       .  S
H992       O1413   0.990       .  S
H994       O1436   0.989       .  S
O995      Zr1007   2.458       .  S
O995        C997   1.291       .  A
O996      Zr1033   2.450       .  S
O996        C997   1.291       .  A
C997       C1310   1.493       .  S
O998      Zr1476   2.466       .  S
O998       C1000   1.292       .  A
O999      Zr1034   2.422       .  S
O999       C1000   1.285       .  A
C1000      C1290   1.478       .  S
O1001     Zr1010   2.473   1_554  S
O1001      C1003   1.293       .  A
O1002     Zr1033   2.447       .  S
O1002      C1003   1.291       .  A
C1003      C1280   1.493       .  S
O1004     Zr1473   2.428       .  S
O1004      C1006   1.285       .  A
O1005     Zr1034   2.428       .  S
O1005      C1006   1.287       .  A
C1006      C1300   1.466       .  S
Zr1007     O1470   2.423   1_554  S
Zr1007     O1008   2.432       .  S
Zr1007     O1475   2.435   1_554  S
Zr1007     O1013   2.377       .  S
Zr1007     O1480   2.382   1_554  S
Zr1007     O1503   2.377   1_554  S
Zr1007     O1039   2.360       .  S
O1008      H1051   0.990       .  S
O1009     Zr1473   2.436       .  S
O1009      H1516   0.990       .  S
O1009      H1520   0.990       .  S
Zr1010     O1464   2.465       .  S
Zr1010     O1011   2.435   1_556  S
Zr1010     O1478   2.434   1_556  S
Zr1010     O1480   2.377       .  S
Zr1010     O1013   2.379   1_556  S
Zr1010     O1038   2.370   1_556  S
Zr1010     O1506   2.375       .  S
O1011      H1518   0.990   1_554  S
O1011      H1055   0.990       .  S
O1012     Zr1476   2.435       .  S
O1012      H1511   0.990       .  S
O1013     Zr1033   2.395       .  S
O1014     Zr1473   2.383       .  S
O1014     Zr1476   2.375       .  S
O1014     Zr1034   2.402       .  S
O1014      H1041   0.966       .  S
O1015     Zr1027   2.443       .  S
O1015      C1017   1.288       .  A
O1016      C1017   1.291       .  A
C1017      C1273   1.491       .  S
O1018     Zr1496   2.451   1_554  S
O1018      C1020   1.290       .  A
O1019      C1020   1.289       .  A
C1020      C1253   1.479       .  S
O1021     Zr1030   2.481       .  S
O1021      C1023   1.295       .  A
O1022      C1023   1.289       .  A
C1023      C1243   1.500       .  S
O1024     Zr1493   2.433   1_554  S
O1024      C1026   1.286       .  A
O1025      C1026   1.292       .  A
C1026      C1260   1.485       .  S
Zr1027     O1490   2.436       .  S
Zr1027     O1494   2.436       .  S
Zr1027     O1495   2.433       .  S
Zr1027     O1035   2.377       .  S
Zr1027     O1502   2.376       .  S
O1028     Zr1493   2.436       .  S
O1028      H1514   0.990       .  S
O1028      H1519   0.990       .  S
O1029     Zr1493   2.433       .  S
O1029      H1515   0.990   1_556  S
Zr1030     O1484   2.450       .  S
Zr1030     O1031   2.434       .  S
Zr1030     O1498   2.436       .  S
Zr1030     O1502   2.389       .  S
Zr1030     O1035   2.371       .  S
O1031      H1513   0.990       .  S
O1032     Zr1496   2.436       .  S
O1032      H1512   0.990       .  S
O1032      H1522   0.990       .  S
Zr1033     O1038   2.397       .  S
Zr1033     O1039   2.385       .  S
Zr1034     O1037   2.382       .  S
Zr1034     O1040   2.386       .  S
O1035      H1043   0.966       .  S
O1036     Zr1493   2.378   1_554  S
O1036     Zr1496   2.387   1_554  S
O1037     Zr1473   2.382       .  S
O1038      H1042   0.964       .  S
O1039      H1044   0.965       .  S
O1040     Zr1476   2.369       .  S
H1045      O1478   0.990   1_556  S
H1046      O1498   0.990       .  S
H1047      O1497   0.990       .  S
H1048      O1494   0.990       .  S
H1049      O1495   0.990       .  S
H1050      O1475   0.989   1_554  S
H1052      O1477   0.990       .  S
H1053      O1494   0.990       .  S
H1054      O1475   0.990   1_554  S
H1056      O1498   0.990       .  S
O1057     Zr1069   2.447   1_554  S
O1057      C1059   1.289       .  A
O1058     Zr1095   2.437   1_655  S
O1058      C1059   1.287       .  A
C1059      C1230   1.499       .  S
O1060     Zr1538   2.436       .  S
O1060      C1062   1.288       .  A
O1061     Zr1096   2.439       .  S
O1061      C1062   1.289       .  A
C1062      C1210   1.478       .  S
O1063     Zr1072   2.462       .  S
O1063      C1065   1.292       .  A
O1064     Zr1095   2.450   1_655  S
O1064      C1065   1.292       .  A
C1065      C1203   1.496       .  S
O1066     Zr1535   2.463       .  S
O1066      C1068   1.291       .  A
O1067     Zr1096   2.457       .  S
O1067      C1068   1.293       .  A
C1068      C1220   1.503       .  S
Zr1069     O1532   2.459       .  S
Zr1069     O1070   2.435       .  S
Zr1069     O1537   2.439       .  S
Zr1069     O1075   2.378   1_556  S
Zr1069     O1542   2.367       .  S
Zr1069     O1565   2.368       .  S
Zr1069     O1101   2.378   1_656  S
O1070      H1113   0.990   1_556  S
O1071     Zr1535   2.440       .  S
O1071      H1578   0.990       .  S
O1071      H1582   0.990       .  S
Zr1072     O1526   2.441   1_554  S
Zr1072     O1073   2.434       .  S
Zr1072     O1540   2.431       .  S
Zr1072     O1542   2.383   1_554  S
Zr1072     O1075   2.379       .  S
Zr1072     O1100   2.356   1_655  S
Zr1072     O1568   2.374   1_654  S
O1073      H1580   0.990       .  S
O1073      H1117   0.990       .  S
O1074     Zr1538   2.432       .  S
O1074      H1573   0.990       .  S
O1075     Zr1095   2.397   1_655  S
O1076     Zr1535   2.371       .  S
O1076     Zr1538   2.385       .  S
O1076     Zr1096   2.403       .  S
O1076      H1103   0.966       .  S
O1077     Zr1089   2.442       .  S
O1077      C1079   1.287       .  A
O1078     Zr1096   2.453   1_455  S
O1078      C1079   1.293       .  A
C1079      C1170   1.497       .  S
O1080     Zr1558   2.467       .  S
O1080      C1082   1.294       .  A
O1081     Zr1095   2.441       .  S
O1081      C1082   1.289       .  A
C1082      C1193   1.502       .  S
O1083     Zr1092   2.447       .  S
O1083      C1085   1.289       .  A
O1084     Zr1096   2.452   1_455  S
O1084      C1085   1.291       .  A
C1085      C1183   1.484       .  S
O1086     Zr1555   2.434   1_554  S
O1086      C1088   1.286       .  A
O1087     Zr1095   2.439       .  S
O1087      C1088   1.288       .  A
C1088      C1163   1.472       .  S
Zr1089     O1552   2.432       .  S
Zr1089     O1090   2.436       .  S
Zr1089     O1557   2.432       .  S
Zr1089     O1097   2.368       .  S
Zr1089     O1564   2.377       .  S
Zr1089     O1567   2.364   1_455  S
Zr1089     O1099   2.369   1_455  S
O1090      H1110   0.990       .  S
O1090      H1115   0.990       .  S
O1091     Zr1555   2.434       .  S
O1091      H1577   0.990   1_556  S
Zr1092     O1546   2.465       .  S
Zr1092     O1093   2.434       .  S
Zr1092     O1560   2.438       .  S
Zr1092     O1564   2.376       .  S
Zr1092     O1097   2.381       .  S
Zr1092     O1102   2.374       .  S
Zr1092     O1566   2.360       .  S
O1093      H1575   0.990       .  S
O1094     Zr1558   2.438       .  S
O1094      H1574   0.990   1_554  S
O1094      H1584   0.990   1_554  S
Zr1095     O1098   2.396       .  S
Zr1095     O1100   2.386       .  S
Zr1095     O1101   2.398       .  S
Zr1096     O1097   2.395   1_655  S
Zr1096     O1099   2.382       .  S
Zr1096     O1102   2.393   1_655  S
O1097      H1105   0.966       .  S
O1098     Zr1555   2.376   1_554  S
O1098     Zr1558   2.376       .  S
O1099     Zr1535   2.371       .  S
O1100     Zr1558   2.360       .  S
O1100      H1104   0.964       .  S
O1101     Zr1555   2.364   1_554  S
O1101      H1106   0.965       .  S
O1102     Zr1538   2.376   1_455  S
H1107      O1540   0.990       .  S
H1108      O1560   0.990       .  S
H1109      O1559   0.990   1_556  S
H1111      O1557   0.990       .  S
H1112      O1537   0.990   1_554  S
H1114      O1539   0.990       .  S
H1116      O1537   0.990   1_554  S
H1118      O1560   0.990       .  S
C1119      H1120   1.109       .  S
C1119      C1125   1.555       .  S
C1119      C1124   1.546       .  S
C1119      C1123   1.535       .  S
C1121      H1122   1.112       .  S
C1121      C1127   1.552       .  S
C1121      C1126   1.532       .  S
C1121      C1128   1.546       .  S
C1123      C1126   1.365       .  D
C1123      C1393   1.474       .  S
C1124      C1127   1.388       .  D
C1124      C1190   1.507       .  S
C1125      C1128   1.386       .  D
C1125      C1263   1.513       .  S
C1126      C1380   1.477       .  S
C1127      C1180   1.509       .  S
C1128      C1270   1.508       .  S
C1129      H1130   1.100       .  S
C1129      C1135   1.547       .  S
C1129      C1134   1.541       .  S
C1129      C1133   1.542       .  S
C1131      H1132   1.106       .  S
C1131      C1137   1.546       .  S
C1131      C1136   1.540       .  S
C1131      C1138   1.552       .  S
C1133      C1136   1.394       .  D
C1133      C1370   1.506       .  S
C1134      C1137   1.377       .  D
C1134      C1250   1.508       .  S
C1135      C1138   1.381       .  D
C1135      C1200   1.508       .  S
C1136      C1363   1.490       .  S
C1137      C1240   1.510       .  S
C1138      C1213   1.514       .  S
C1139      H1140   1.112       .  S
C1139      C1145   1.544       .  S
C1139      C1144   1.535       .  S
C1139      C1143   1.534       .  S
C1141      H1142   1.109       .  S
C1141      C1147   1.553       .  S
C1141      C1146   1.539       .  S
C1141      C1148   1.543       .  S
C1143      C1146   1.373       .  D
C1143      C1330   1.475       .  S
C1144      C1147   1.383       .  D
C1144      C1313   1.512       .  S
C1145      C1148   1.382       .  D
C1145      C1160   1.497       .  S
C1146      C1323   1.484       .  S
C1147      C1303   1.498       .  S
C1148      C1173   1.508       .  S
C1149      H1150   1.105       .  S
C1149      C1155   1.537       .  S
C1149      C1154   1.550       .  S
C1149      C1153   1.543       .  S
C1151      H1152   1.094       .  S
C1151      C1157   1.535       .  S
C1151      C1156   1.539       .  S
C1151      C1158   1.566       .  S
C1153      C1156   1.374       .  D
C1153      C1343   1.505       .  S
C1154      C1157   1.374       .  D
C1154      C1293   1.507       .  S
C1155      C1158   1.400       .  D
C1155      C1223   1.519       .  S
C1156      C1353   1.460       .  S
C1157      C1283   1.506       .  S
C1158      C1233   1.535       .  S
C1159      C1160   1.411       .  A
C1159      C1164   1.386       .  A
C1159      H1166   1.077       .  S
C1160      C1161   1.413       .  A
C1161      C1162   1.409       .  A
C1161     Br1168   1.918       .  S
C1162      C1163   1.407       .  A
C1162      H1167   1.082       .  S
C1163      C1164   1.401       .  A
C1164     Br1165   1.922       .  S
C1169      C1170   1.401       .  A
C1169      C1174   1.403       .  A
C1169      H1176   1.084       .  S
C1170      C1171   1.416       .  A
C1171      C1172   1.404       .  A
C1171     Br1178   1.918       .  S
C1172      C1173   1.406       .  A
C1172      H1177   1.084       .  S
C1173      C1174   1.423       .  A
C1174     Br1175   1.909       .  S
C1179      C1180   1.407       .  A
C1179      C1184   1.392       .  A
C1179      H1186   1.076       .  S
C1180      C1181   1.415       .  A
C1181      C1182   1.415       .  A
C1181     Br1188   1.917       .  S
C1182      C1183   1.410       .  A
C1182      H1187   1.082       .  S
C1183      C1184   1.404       .  A
C1184     Br1185   1.922       .  S
C1189      C1190   1.409       .  A
C1189      C1194   1.408       .  A
C1189      H1196   1.080       .  S
C1190      C1191   1.412       .  A
C1191      C1192   1.402       .  A
C1191     Br1198   1.922       .  S
C1192      C1193   1.408       .  A
C1192      H1197   1.083       .  S
C1193      C1194   1.419       .  A
C1194     Br1195   1.921       .  S
C1199      C1200   1.405       .  A
C1199      C1204   1.404       .  A
C1199      H1206   1.084       .  S
C1200      C1201   1.424       .  A
C1201      C1202   1.408       .  A
C1201     Br1208   1.913       .  S
C1202      C1203   1.403       .  A
C1202      H1207   1.084       .  S
C1203      C1204   1.415       .  A
C1204     Br1205   1.918       .  S
C1209      C1210   1.406       .  A
C1209      C1214   1.411       .  A
C1209      H1216   1.083       .  S
C1210      C1211   1.403       .  A
C1211      C1212   1.391       .  A
C1211     Br1218   1.924       .  S
C1212      C1213   1.412       .  A
C1212      H1217   1.074       .  S
C1213      C1214   1.417       .  A
C1214     Br1215   1.916       .  S
C1219      C1220   1.404       .  A
C1219      C1224   1.410       .  A
C1219      H1226   1.084       .  S
C1220      C1221   1.416       .  A
C1221      C1222   1.408       .  A
C1221     Br1228   1.918       .  S
C1222      C1223   1.405       .  A
C1222      H1227   1.083       .  S
C1223      C1224   1.428       .  A
C1224     Br1225   1.919       .  S
C1229      C1230   1.404       .  A
C1229      C1234   1.394       .  A
C1229      H1236   1.082       .  S
C1230      C1231   1.416       .  A
C1231      C1232   1.408       .  A
C1231     Br1238   1.922       .  S
C1232      C1233   1.413       .  A
C1232      H1237   1.075       .  S
C1233      C1234   1.421       .  A
C1234     Br1235   1.921       .  S
C1239      C1240   1.406       .  A
C1239      C1244   1.406       .  A
C1239      H1246   1.084       .  S
C1240      C1241   1.424       .  A
C1241      C1242   1.410       .  A
C1241     Br1248   1.919       .  S
C1242      C1243   1.406       .  A
C1242      H1247   1.084       .  S
C1243      C1244   1.413       .  A
C1244     Br1245   1.916       .  S
C1249      C1250   1.413       .  A
C1249      C1254   1.396       .  A
C1249      H1256   1.078       .  S
C1250      C1251   1.412       .  A
C1251      C1252   1.409       .  A
C1251     Br1258   1.915       .  S
C1252      C1253   1.407       .  A
C1252      H1257   1.084       .  S
C1253      C1254   1.403       .  A
C1254     Br1255   1.922       .  S
C1259      C1260   1.407       .  A
C1259      C1264   1.411       .  A
C1259      H1266   1.084       .  S
C1260      C1261   1.407       .  A
C1261      C1262   1.395       .  A
C1261     Br1268   1.922       .  S
C1262      C1263   1.411       .  A
C1262      H1267   1.077       .  S
C1263      C1264   1.418       .  A
C1264     Br1265   1.917       .  S
C1269      C1270   1.407       .  A
C1269      C1274   1.404       .  A
C1269      H1276   1.084       .  S
C1270      C1271   1.421       .  A
C1271      C1272   1.405       .  A
C1271     Br1278   1.912       .  S
C1272      C1273   1.401       .  A
C1272      H1277   1.084       .  S
C1273      C1274   1.412       .  A
C1274     Br1275   1.920       .  S
C1279      C1280   1.409       .  A
C1279      C1284   1.409       .  A
C1279      H1286   1.083       .  S
C1280      C1281   1.409       .  A
C1281      C1282   1.403       .  A
C1281     Br1288   1.915       .  S
C1282      C1283   1.404       .  A
C1282      H1287   1.075       .  S
C1283      C1284   1.410       .  A
C1284     Br1285   1.916       .  S
C1289      C1290   1.406       .  A
C1289      C1294   1.408       .  A
C1289      H1296   1.082       .  S
C1290      C1291   1.401       .  A
C1291      C1292   1.395       .  A
C1291     Br1298   1.919       .  S
C1292      C1293   1.411       .  A
C1292      H1297   1.077       .  S
C1293      C1294   1.412       .  A
C1294     Br1295   1.912       .  S
C1299      C1300   1.404       .  A
C1299      C1304   1.404       .  A
C1299      H1306   1.084       .  S
C1300      C1301   1.402       .  A
C1301      C1302   1.388       .  A
C1301     Br1308   1.922       .  S
C1302      C1303   1.410       .  A
C1302      H1307   1.074       .  S
C1303      C1304   1.412       .  A
C1304     Br1305   1.916       .  S
C1309      C1310   1.399       .  A
C1309      C1314   1.406       .  A
C1309      H1316   1.081       .  S
C1310      C1311   1.411       .  A
C1311      C1312   1.406       .  A
C1311     Br1318   1.917       .  S
C1312      C1313   1.407       .  A
C1312      H1317   1.084       .  S
C1313      C1314   1.423       .  A
C1314     Br1315   1.911       .  S
C1319      C1320   1.393       .  A
C1319      C1324   1.383       .  A
C1319      H1326   1.085       .  S
C1320      C1321   1.401       .  A
C1321      C1322   1.393       .  A
C1321     Br1328   1.919       .  S
C1322      C1323   1.409       .  A
C1322      H1327   1.078       .  S
C1323      C1324   1.411       .  A
C1324     Br1325   1.904       .  S
C1329      C1330   1.403       .  A
C1329      C1334   1.385       .  A
C1329      H1336   1.077       .  S
C1330      C1331   1.411       .  A
C1331      C1332   1.390       .  A
C1331     Br1338   1.913       .  S
C1332      C1333   1.400       .  A
C1332      H1337   1.085       .  S
C1333      C1334   1.399       .  A
C1334     Br1335   1.920       .  S
C1339      C1340   1.404       .  A
C1339      C1344   1.391       .  A
C1339      H1346   1.083       .  S
C1340      C1341   1.414       .  A
C1341      C1342   1.379       .  A
C1341     Br1348   1.925       .  S
C1342      C1343   1.401       .  A
C1342      H1347   1.077       .  S
C1343      C1344   1.411       .  A
C1344     Br1345   1.922       .  S
C1349      C1350   1.400       .  A
C1349      C1354   1.395       .  A
C1349      H1356   1.084       .  S
C1350      C1351   1.409       .  A
C1351      C1352   1.382       .  A
C1351     Br1358   1.918       .  S
C1352      C1353   1.396       .  A
C1352      H1357   1.082       .  S
C1353      C1354   1.413       .  A
C1354     Br1355   1.915       .  S
C1359      C1360   1.384       .  A
C1359      C1364   1.381       .  A
C1359      H1366   1.086       .  S
C1360      C1361   1.399       .  A
C1361      C1362   1.394       .  A
C1361     Br1368   1.904       .  S
C1362      C1363   1.407       .  A
C1362      H1367   1.079       .  S
C1363      C1364   1.422       .  A
C1364     Br1365   1.898       .  S
C1369      C1370   1.415       .  A
C1369      C1374   1.400       .  A
C1369      H1376   1.079       .  S
C1370      C1371   1.426       .  A
C1371      C1372   1.376       .  A
C1371     Br1378   1.907       .  S
C1372      C1373   1.384       .  A
C1372      H1377   1.086       .  S
C1373      C1374   1.405       .  A
C1374     Br1375   1.919       .  S
C1379      C1380   1.401       .  A
C1379      C1384   1.394       .  A
C1379      H1386   1.081       .  S
C1380      C1381   1.410       .  A
C1381      C1382   1.396       .  A
C1381     Br1388   1.915       .  S
C1382      C1383   1.400       .  A
C1382      H1387   1.084       .  S
C1383      C1384   1.406       .  A
C1384     Br1385   1.919       .  S
C1389      C1390   1.390       .  A
C1389      C1394   1.384       .  A
C1389      H1396   1.085       .  S
C1390      C1391   1.400       .  A
C1391      C1392   1.393       .  A
C1391     Br1398   1.918       .  S
C1392      C1393   1.403       .  A
C1392      H1397   1.077       .  S
C1393      C1394   1.410       .  A
C1394     Br1395   1.898       .  S
O1399     Zr1411   2.420       .  S
O1399      C1401   1.283       .  A
O1400     Zr1437   2.394       .  S
O1400      C1401   1.280       .  A
C1401      C1856   1.443       .  S
O1402      C1404   1.287       .  A
O1403     Zr1438   2.392       .  S
O1403      C1404   1.279       .  A
C1404      C1826   1.453       .  S
O1405     Zr1414   2.440       .  S
O1405      C1407   1.291       .  A
O1406     Zr1437   2.379       .  S
O1406      C1407   1.275       .  A
C1407      C1839   1.463       .  S
O1408      C1410   1.287       .  A
O1409     Zr1438   2.417       .  S
O1409      C1410   1.283       .  A
C1410      C1849   1.465       .  S
Zr1411     O1412   2.436       .  S
Zr1411     O1417   2.376       .  S
Zr1411     O1443   2.373       .  S
O1412      H1455   0.990       .  S
Zr1414     O1415   2.436       .  S
Zr1414     O1417   2.354       .  S
Zr1414     O1442   2.358       .  S
O1415      H1459   0.990       .  S
O1417     Zr1437   2.382       .  S
O1418     Zr1438   2.382       .  S
O1418      H1445   0.966       .  S
O1419     Zr1431   2.412       .  S
O1419      C1421   1.283       .  A
O1420     Zr1438   2.394       .  S
O1420      C1421   1.280       .  A
C1421      C1786   1.450       .  S
O1422      C1424   1.278       .  A
O1423     Zr1437   2.428       .  S
O1423      C1424   1.286       .  A
C1424      C1816   1.452       .  S
O1425     Zr1434   2.381       .  S
O1425      C1427   1.274       .  A
O1426     Zr1438   2.398       .  S
O1426      C1427   1.282       .  A
C1427      C1806   1.459       .  S
O1428      C1430   1.286       .  A
O1429     Zr1437   2.375       .  S
O1429      C1430   1.277       .  A
C1430      C1799   1.449       .  S
Zr1431     O1433   2.434       .  S
Zr1431     O1439   2.365       .  S
Zr1431     O1441   2.373       .  S
O1433      H1453   0.990       .  S
Zr1434     O1435   2.434       .  S
Zr1434     O1439   2.368       .  S
Zr1434     O1444   2.354       .  S
Zr1437     O1440   2.369       .  S
Zr1437     O1442   2.365       .  S
Zr1437     O1443   2.380       .  S
Zr1438     O1439   2.379       .  S
Zr1438     O1441   2.371       .  S
Zr1438     O1444   2.368       .  S
O1439      H1447   0.966       .  S
O1442      H1446   0.966       .  S
O1443      H1448   0.966       .  S
O1461     Zr1473   2.466       .  S
O1461      C1463   1.291       .  A
O1462     Zr1499   2.456       .  S
O1462      C1463   1.292       .  A
C1463      C1776   1.498       .  S
O1464      C1466   1.292       .  A
O1465     Zr1500   2.421       .  S
O1465      C1466   1.285       .  A
C1466      C1756   1.477       .  S
O1467     Zr1476   2.466       .  S
O1467      C1469   1.292       .  A
O1468     Zr1499   2.444       .  S
O1468      C1469   1.291       .  A
C1469      C1746   1.488       .  S
O1470      C1472   1.284       .  A
O1471     Zr1500   2.434       .  S
O1471      C1472   1.288       .  A
C1472      C1766   1.467       .  S
Zr1473     O1474   2.433       .  S
Zr1473     O1479   2.373       .  S
Zr1473     O1505   2.362       .  S
O1474      H1517   0.989       .  S
Zr1476     O1477   2.435       .  S
Zr1476     O1479   2.386       .  S
Zr1476     O1504   2.369       .  S
O1477      H1521   0.990       .  S
O1479     Zr1499   2.397       .  S
O1480     Zr1500   2.403       .  S
O1480      H1507   0.966       .  S
O1481     Zr1493   2.443       .  S
O1481      C1483   1.288       .  A
O1482      C1483   1.291       .  A
C1483      C1739   1.491       .  S
O1484      C1486   1.290       .  A
O1485      C1486   1.289       .  A
C1486      C1719   1.477       .  S
O1487     Zr1496   2.477       .  S
O1487      C1489   1.294       .  A
O1488      C1489   1.288       .  A
C1489      C1709   1.497       .  S
O1490      C1492   1.287       .  A
O1491      C1492   1.292       .  A
C1492      C1726   1.487       .  S
Zr1493     O1501   2.374       .  S
Zr1496     O1497   2.436       .  S
Zr1496     O1501   2.372       .  S
Zr1499     O1504   2.401       .  S
Zr1499     O1505   2.382       .  S
Zr1500     O1503   2.380       .  S
Zr1500     O1506   2.389       .  S
O1501      H1509   0.966       .  S
O1504      H1508   0.965       .  S
O1505      H1510   0.965       .  S
O1523     Zr1535   2.451       .  S
O1523      C1525   1.290       .  A
O1524     Zr1561   2.432   1_655  S
O1524      C1525   1.286       .  A
C1525      C1696   1.498       .  S
O1526      C1528   1.288       .  A
O1527     Zr1562   2.439       .  S
O1527      C1528   1.289       .  A
C1528      C1676   1.479       .  S
O1529     Zr1538   2.467       .  S
O1529      C1531   1.293       .  A
O1530     Zr1561   2.451   1_655  S
O1530      C1531   1.292       .  A
C1531      C1669   1.498       .  S
O1532      C1534   1.290       .  A
O1533     Zr1562   2.459       .  S
O1533      C1534   1.293       .  A
C1534      C1686   1.503       .  S
Zr1535     O1536   2.435       .  S
Zr1535     O1541   2.379       .  S
Zr1535     O1567   2.377       .  S
O1536      H1579   0.990       .  S
Zr1538     O1539   2.435       .  S
Zr1538     O1541   2.378       .  S
Zr1538     O1566   2.356   1_655  S
O1539      H1583   0.990       .  S
O1541     Zr1561   2.398   1_655  S
O1542     Zr1562   2.397       .  S
O1542      H1569   0.966       .  S
O1543     Zr1555   2.440       .  S
O1543      C1545   1.287       .  A
O1544     Zr1562   2.449   1_455  S
O1544      C1545   1.293       .  A
C1545      C1636   1.495       .  S
O1546      C1548   1.294       .  A
O1547     Zr1561   2.439       .  S
O1547      C1548   1.288       .  A
C1548      C1659   1.501       .  S
O1549     Zr1558   2.445   1_556  S
O1549      C1551   1.288       .  A
O1550     Zr1562   2.448   1_455  S
O1550      C1551   1.290       .  A
C1551      C1649   1.482       .  S
O1552      C1554   1.286       .  A
O1553     Zr1561   2.443       .  S
O1553      C1554   1.289       .  A
C1554      C1629   1.472       .  S
Zr1555     O1556   2.437       .  S
Zr1555     O1563   2.370       .  S
Zr1555     O1565   2.371   1_455  S
O1556      H1576   0.990       .  S
O1556      H1581   0.990       .  S
Zr1558     O1559   2.435       .  S
Zr1558     O1563   2.381   1_554  S
Zr1558     O1568   2.376   1_554  S
Zr1561     O1564   2.394       .  S
Zr1561     O1566   2.386       .  S
Zr1561     O1567   2.397   1_455  S
Zr1562     O1563   2.399   1_655  S
Zr1562     O1565   2.382       .  S
Zr1562     O1568   2.393   1_655  S
O1563      H1571   0.966       .  S
O1566      H1570   0.964       .  S
O1567      H1572   0.965       .  S
C1585      H1586   1.109       .  S
C1585      C1591   1.553       .  S
C1585      C1590   1.546       .  S
C1585      C1589   1.535       .  S
C1587      H1588   1.112       .  S
C1587      C1593   1.554       .  S
C1587      C1592   1.533       .  S
C1587      C1594   1.548       .  S
C1589      C1592   1.367       .  D
C1589      C1859   1.474       .  S
C1590      C1593   1.387       .  D
C1590      C1656   1.508       .  S
C1591      C1594   1.386       .  D
C1591      C1729   1.513       .  S
C1592      C1846   1.482       .  S
C1593      C1646   1.510       .  S
C1594      C1736   1.508       .  S
C1595      H1596   1.100       .  S
C1595      C1601   1.548       .  S
C1595      C1600   1.542       .  S
C1595      C1599   1.544       .  S
C1597      H1598   1.105       .  S
C1597      C1603   1.546       .  S
C1597      C1602   1.541       .  S
C1597      C1604   1.551       .  S
C1599      C1602   1.396       .  D
C1599      C1836   1.507       .  S
C1600      C1603   1.377       .  D
C1600      C1716   1.509       .  S
C1601      C1604   1.382       .  D
C1601      C1666   1.509       .  S
C1602      C1829   1.495       .  S
C1603      C1706   1.508       .  S
C1604      C1679   1.517       .  S
C1605      H1606   1.112       .  S
C1605      C1611   1.547       .  S
C1605      C1610   1.536       .  S
C1605      C1609   1.535       .  S
C1607      H1608   1.109       .  S
C1607      C1613   1.553       .  S
C1607      C1612   1.541       .  S
C1607      C1614   1.541       .  S
C1609      C1612   1.375       .  D
C1609      C1796   1.479       .  S
C1610      C1613   1.382       .  D
C1610      C1779   1.513       .  S
C1611      C1614   1.380       .  D
C1611      C1626   1.495       .  S
C1612      C1789   1.487       .  S
C1613      C1769   1.496       .  S
C1614      C1639   1.509       .  S
C1615      H1616   1.106       .  S
C1615      C1621   1.538       .  S
C1615      C1620   1.548       .  S
C1615      C1619   1.542       .  S
C1617      H1618   1.094       .  S
C1617      C1623   1.537       .  S
C1617      C1622   1.538       .  S
C1617      C1624   1.567       .  S
C1619      C1622   1.373       .  D
C1619      C1809   1.502       .  S
C1620      C1623   1.375       .  D
C1620      C1759   1.508       .  S
C1621      C1624   1.398       .  D
C1621      C1689   1.515       .  S
C1622      C1819   1.461       .  S
C1623      C1749   1.506       .  S
C1624      C1699   1.535       .  S
C1625      C1626   1.408       .  A
C1625      C1630   1.385       .  A
C1625      H1632   1.078       .  S
C1626      C1627   1.414       .  A
C1627      C1628   1.410       .  A
C1627     Br1634   1.919       .  S
C1628      C1629   1.408       .  A
C1628      H1633   1.082       .  S
C1629      C1630   1.401       .  A
C1630     Br1631   1.921       .  S
C1635      C1636   1.400       .  A
C1635      C1640   1.402       .  A
C1635      H1642   1.084       .  S
C1636      C1637   1.416       .  A
C1637      C1638   1.404       .  A
C1637     Br1644   1.919       .  S
C1638      C1639   1.406       .  A
C1638      H1643   1.084       .  S
C1639      C1640   1.424       .  A
C1640     Br1641   1.908       .  S
C1645      C1646   1.407       .  A
C1645      C1650   1.392       .  A
C1645      H1652   1.076       .  S
C1646      C1647   1.417       .  A
C1647      C1648   1.414       .  A
C1647     Br1654   1.917       .  S
C1648      C1649   1.409       .  A
C1648      H1653   1.082       .  S
C1649      C1650   1.403       .  A
C1650     Br1651   1.923       .  S
C1655      C1656   1.410       .  A
C1655      C1660   1.407       .  A
C1655      H1662   1.079       .  S
C1656      C1657   1.412       .  A
C1657      C1658   1.401       .  A
C1657     Br1664   1.922       .  S
C1658      C1659   1.408       .  A
C1658      H1663   1.083       .  S
C1659      C1660   1.418       .  A
C1660     Br1661   1.921       .  S
C1665      C1666   1.406       .  A
C1665      C1670   1.406       .  A
C1665      H1672   1.084       .  S
C1666      C1667   1.423       .  A
C1667      C1668   1.408       .  A
C1667     Br1674   1.912       .  S
C1668      C1669   1.403       .  A
C1668      H1673   1.084       .  S
C1669      C1670   1.415       .  A
C1670     Br1671   1.918       .  S
C1675      C1676   1.406       .  A
C1675      C1680   1.410       .  A
C1675      H1682   1.083       .  S
C1676      C1677   1.403       .  A
C1677      C1678   1.392       .  A
C1677     Br1684   1.924       .  S
C1678      C1679   1.413       .  A
C1678      H1683   1.073       .  S
C1679      C1680   1.417       .  A
C1680     Br1681   1.916       .  S
C1685      C1686   1.404       .  A
C1685      C1690   1.409       .  A
C1685      H1692   1.083       .  S
C1686      C1687   1.418       .  A
C1687      C1688   1.407       .  A
C1687     Br1694   1.918       .  S
C1688      C1689   1.404       .  A
C1688      H1693   1.084       .  S
C1689      C1690   1.426       .  A
C1690     Br1691   1.920       .  S
C1695      C1696   1.403       .  A
C1695      C1700   1.392       .  A
C1695      H1702   1.082       .  S
C1696      C1697   1.417       .  A
C1697      C1698   1.409       .  A
C1697     Br1704   1.923       .  S
C1698      C1699   1.415       .  A
C1698      H1703   1.075       .  S
C1699      C1700   1.419       .  A
C1700     Br1701   1.918       .  S
C1705      C1706   1.407       .  A
C1705      C1710   1.406       .  A
C1705      H1712   1.083       .  S
C1706      C1707   1.423       .  A
C1707      C1708   1.408       .  A
C1707     Br1714   1.919       .  S
C1708      C1709   1.405       .  A
C1708      H1713   1.084       .  S
C1709      C1710   1.413       .  A
C1710     Br1711   1.917       .  S
C1715      C1716   1.412       .  A
C1715      C1720   1.395       .  A
C1715      H1722   1.078       .  S
C1716      C1717   1.413       .  A
C1717      C1718   1.409       .  A
C1717     Br1724   1.915       .  S
C1718      C1719   1.407       .  A
C1718      H1723   1.084       .  S
C1719      C1720   1.402       .  A
C1720     Br1721   1.922       .  S
C1725      C1726   1.408       .  A
C1725      C1730   1.412       .  A
C1725      H1732   1.084       .  S
C1726      C1727   1.407       .  A
C1727      C1728   1.395       .  A
C1727     Br1734   1.922       .  S
C1728      C1729   1.410       .  A
C1728      H1733   1.077       .  S
C1729      C1730   1.417       .  A
C1730     Br1731   1.917       .  S
C1735      C1736   1.406       .  A
C1735      C1740   1.404       .  A
C1735      H1742   1.084       .  S
C1736      C1737   1.423       .  A
C1737      C1738   1.405       .  A
C1737     Br1744   1.910       .  S
C1738      C1739   1.401       .  A
C1738      H1743   1.084       .  S
C1739      C1740   1.412       .  A
C1740     Br1741   1.919       .  S
C1745      C1746   1.407       .  A
C1745      C1750   1.407       .  A
C1745      H1752   1.083       .  S
C1746      C1747   1.407       .  A
C1747      C1748   1.402       .  A
C1747     Br1754   1.915       .  S
C1748      C1749   1.404       .  A
C1748      H1753   1.075       .  S
C1749      C1750   1.410       .  A
C1750     Br1751   1.915       .  S
C1755      C1756   1.406       .  A
C1755      C1760   1.408       .  A
C1755      H1762   1.083       .  S
C1756      C1757   1.401       .  A
C1757      C1758   1.396       .  A
C1757     Br1764   1.920       .  S
C1758      C1759   1.412       .  A
C1758      H1763   1.077       .  S
C1759      C1760   1.412       .  A
C1760     Br1761   1.913       .  S
C1765      C1766   1.405       .  A
C1765      C1770   1.405       .  A
C1765      H1772   1.084       .  S
C1766      C1767   1.402       .  A
C1767      C1768   1.387       .  A
C1767     Br1774   1.921       .  S
C1768      C1769   1.409       .  A
C1768      H1773   1.075       .  S
C1769      C1770   1.412       .  A
C1770     Br1771   1.917       .  S
C1775      C1776   1.401       .  A
C1775      C1780   1.407       .  A
C1775      H1782   1.080       .  S
C1776      C1777   1.412       .  A
C1777      C1778   1.407       .  A
C1777     Br1784   1.916       .  S
C1778      C1779   1.406       .  A
C1778      H1783   1.084       .  S
C1779      C1780   1.423       .  A
C1780     Br1781   1.911       .  S
C1785      C1786   1.393       .  A
C1785      C1790   1.384       .  A
C1785      H1792   1.085       .  S
C1786      C1787   1.401       .  A
C1787      C1788   1.394       .  A
C1787     Br1794   1.920       .  S
C1788      C1789   1.409       .  A
C1788      H1793   1.077       .  S
C1789      C1790   1.412       .  A
C1790     Br1791   1.905       .  S
C1795      C1796   1.406       .  A
C1795      C1800   1.388       .  A
C1795      H1802   1.076       .  S
C1796      C1797   1.411       .  A
C1797      C1798   1.389       .  A
C1797     Br1804   1.911       .  S
C1798      C1799   1.399       .  A
C1798      H1803   1.085       .  S
C1799      C1800   1.399       .  A
C1800     Br1801   1.921       .  S
C1805      C1806   1.401       .  A
C1805      C1810   1.388       .  A
C1805      H1812   1.084       .  S
C1806      C1807   1.413       .  A
C1807      C1808   1.378       .  A
C1807     Br1814   1.925       .  S
C1808      C1809   1.402       .  A
C1808      H1813   1.077       .  S
C1809      C1810   1.411       .  A
C1810     Br1811   1.919       .  S
C1815      C1816   1.399       .  A
C1815      C1820   1.396       .  A
C1815      H1822   1.084       .  S
C1816      C1817   1.407       .  A
C1817      C1818   1.384       .  A
C1817     Br1824   1.918       .  S
C1818      C1819   1.396       .  A
C1818      H1823   1.082       .  S
C1819      C1820   1.414       .  A
C1820     Br1821   1.915       .  S
C1825      C1826   1.385       .  A
C1825      C1830   1.382       .  A
C1825      H1832   1.086       .  S
C1826      C1827   1.400       .  A
C1827      C1828   1.395       .  A
C1827     Br1834   1.906       .  S
C1828      C1829   1.408       .  A
C1828      H1833   1.079       .  S
C1829      C1830   1.423       .  A
C1830     Br1831   1.900       .  S
C1835      C1836   1.415       .  A
C1835      C1840   1.400       .  A
C1835      H1842   1.079       .  S
C1836      C1837   1.427       .  A
C1837      C1838   1.378       .  A
C1837     Br1844   1.907       .  S
C1838      C1839   1.385       .  A
C1838      H1843   1.086       .  S
C1839      C1840   1.405       .  A
C1840     Br1841   1.919       .  S
C1845      C1846   1.403       .  A
C1845      C1850   1.397       .  A
C1845      H1852   1.081       .  S
C1846      C1847   1.411       .  A
C1847      C1848   1.398       .  A
C1847     Br1854   1.914       .  S
C1848      C1849   1.400       .  A
C1848      H1853   1.084       .  S
C1849      C1850   1.405       .  A
C1850     Br1851   1.919       .  S
C1855      C1856   1.391       .  A
C1855      C1860   1.385       .  A
C1855      H1862   1.085       .  S
C1856      C1857   1.400       .  A
C1857      C1858   1.393       .  A
C1857     Br1864   1.918       .  S
C1858      C1859   1.403       .  A
C1858      H1863   1.075       .  S
C1859      C1860   1.409       .  A
C1860     Br1861   1.899       .  S
