geometry optimzed in LAMMPS
_audit_creation_date              2020-11-30 
_audit_creation_method            'lammps2cif' 
_symmetry_space_group_name_H-M    'P1' 
_symmetry_Int_Tables_number       1 
_symmetry_cell_setting            triclinic 
loop_ 
_symmetry_equiv_pos_as_xyz 
  x,y,z 
_cell_length_a                    54.84768514 
_cell_length_b                    54.41501093457099 
_cell_length_c                    54.729693576764134 
_cell_angle_alpha                 89.71979947880038 
_cell_angle_beta                  89.89965282745487 
_cell_angle_gamma                 89.79415513684079 
loop_ 
_atom_site_label 
_atom_site_type_symbol 
_atom_site_fract_x 
_atom_site_fract_y 
_atom_site_fract_z 
_atom_site_charge 
Zn1        Zn  0.45084549  0.50678402  0.98003712     1.49700
Zn2        Zn  0.50888524  0.49803266  0.99264065     1.49400
Zn3        Zn  0.48384255  0.54793824  0.98172577     1.49100
Zn4        Zn  0.46904649  0.51460587  0.03003094     1.49500
O5          O  0.47969657  0.51720173  0.99702184    -1.81600
O6          O  0.46044117  0.47728026  0.96091008    -0.72300
O7          O  0.53751627  0.52109096  0.98441683    -0.72100
O8          O  0.47378478  0.54175800  0.94495050    -0.71600
O9          O  0.50002961  0.47023057  0.96792606    -0.72300
O10         O  0.43756743  0.53173665  0.95770863    -0.71900
O11         O  0.51900829  0.55725576  0.98650333    -0.72400
O12         O  0.45852581  0.54937330  0.03937920    -0.71800
O13         O  0.52211719  0.48744689  0.02598707    -0.72600
O14         O  0.46458866  0.57017398  0.00451013    -0.72000
O15         O  0.49931033  0.51098434  0.04972389    -0.72500
O16         O  0.44800032  0.48246183  0.02984494    -0.72400
O17         O  0.42422965  0.49903343  0.00253124    -0.72200
C18         C  0.47980715  0.46480961  0.95725586     0.79600
C19         C  0.53837720  0.54437394  0.98764051     0.80100
C20         C  0.45231717  0.53401490  0.94021786     0.79100
C21         C  0.46568231  0.56873722  0.02794518     0.79500
C22         C  0.51933052  0.50002053  0.04551234     0.80600
C23         C  0.43084986  0.48023951  0.01423540     0.79700
Zn24       Zn  0.54528046  0.99562291  0.50737331     1.49700
Zn25       Zn  0.51827955  0.94945560  0.50511198     1.49400
Zn26       Zn  0.48491560  0.99618336  0.50598365     1.49100
Zn27       Zn  0.51985787  0.99184496  0.46118104     1.49500
O28         O  0.51539982  0.98253616  0.49424677    -1.81600
O29         O  0.56615738  0.97108519  0.52320937    -0.72300
O30         O  0.48448827  0.93545204  0.50638272    -0.72100
O31         O  0.49420527  0.02289198  0.53182858    -0.71600
O32         O  0.53540307  0.95238831  0.53995321    -0.72300
O33         O  0.53500872  0.02092781  0.53137145    -0.71900
O34         O  0.46220665  0.96795788  0.51635750    -0.72400
O35         O  0.48703445  0.99457244  0.44677415    -0.71800
O36         O  0.53131946  0.93188108  0.47484849    -0.72600
O37         O  0.46345704  0.00697044  0.47709592    -0.72000
O38         O  0.53027267  0.95987745  0.44438963    -0.72500
O39         O  0.53714849  0.02672891  0.46290710    -0.72400
O40         O  0.56710272  0.01023993  0.48312293    -0.72200
C41         C  0.55558647  0.96394392  0.54230797     0.79600
C42         C  0.46379043  0.94543262  0.50980442     0.80100
C43         C  0.51520402  0.03007269  0.53956685     0.79100
C44         C  0.46606151  0.99974211  0.45503792     0.79500
C45         C  0.52683755  0.93792769  0.45252508     0.80600
C46         C  0.55700589  0.02925041  0.47484700     0.79700
Zn47       Zn  0.01555963  0.51765776  0.51417587     1.49700
Zn48       Zn  0.96764080  0.49787670  0.51437690     1.49400
Zn49       Zn  0.99695342  0.51577962  0.46664189     1.49100
Zn50       Zn  0.01460684  0.46696645  0.49628979     1.49500
O51         O  0.99701632  0.49712307  0.49593170    -1.81600
O52         O  0.99557235  0.54512932  0.52607763    -0.72300
O53         O  0.94117130  0.50886360  0.49117334    -0.72100
O54         O  0.01468213  0.54990347  0.47347694    -0.71600
O55         O  0.97317722  0.51850867  0.54621677    -0.72300
O56         O  0.04262332  0.53100211  0.49520761    -0.71900
O57         O  0.96147800  0.51504440  0.45639014    -0.72400
O58         O  0.01730863  0.45799703  0.46044832    -0.71800
O59         O  0.95773594  0.46252465  0.51831473    -0.72600
O60         O  0.01132970  0.49355461  0.44080583    -0.72000
O61         O  0.98999173  0.44053619  0.50578666    -0.72500
O62         O  0.04643491  0.47215370  0.51793111    -0.72400
O63         O  0.02865650  0.49960731  0.54174590    -0.72200
C64         C  0.98543108  0.53853816  0.54570916     0.79600
C65         C  0.94188398  0.50956488  0.46781517     0.80100
C66         C  0.03465221  0.55061561  0.48574450     0.79100
C67         C  0.01198472  0.47001323  0.44103756     0.79500
C68         C  0.96717972  0.44268196  0.51020263     0.80600
C69         C  0.04681369  0.48617582  0.53682095     0.79700
Zn70       Zn  0.02298109  0.00184410  0.97444547     1.49700
Zn71       Zn  0.01723215  0.96356587  0.01943722     1.49400
Zn72       Zn  0.02864335  0.01529811  0.02553035     1.49100
Zn73       Zn  0.97769510  0.00736999  0.01166634     1.49500
O74         O  0.00993827  0.99516110  0.00597759    -1.81600
O75         O  0.02905449  0.96832446  0.95986011    -0.72300
O76         O  0.03914703  0.96871125  0.05099805    -0.72100
O77         O  0.03566182  0.04640506  0.00872262    -0.71600
O78         O  0.02739449  0.94153752  0.99100520    -0.72300
O79         O  0.05321388  0.02590519  0.97892403    -0.71900
O80         O  0.05955231  0.99890328  0.03392803    -0.72400
O81         O  0.98137225  0.03937702  0.03357321    -0.71800
O82         O  0.98455585  0.94820898  0.02475851    -0.72600
O83         O  0.01064556  0.02263075  0.05548252    -0.72000
O84         O  0.95707773  0.97842827  0.02303051    -0.72500
O85         O  0.96258505  0.01044144  0.97799893    -0.72400
O86         O  0.99427621  0.01125137  0.95247693    -0.72200
C87         C  0.02588822  0.94658600  0.96817785     0.79600
C88         C  0.05591647  0.98511199  0.05214631     0.80100
C89         C  0.05353685  0.04354482  0.99450827     0.79100
C90         C  0.99671364  0.04062588  0.05128802     0.79500
C91         C  0.96259585  0.95555877  0.02221856     0.80600
C92         C  0.97136152  0.00877662  0.95644258     0.79700
Zn93       Zn  0.50801564  0.73013528  0.22621941     1.49700
Zn94       Zn  0.48913188  0.73122659  0.27477796     1.49400
Zn95       Zn  0.50801345  0.77905987  0.24555448     1.49100
Zn96       Zn  0.45919953  0.75065531  0.22741837     1.49500
O97         O  0.48913027  0.75006392  0.24529690    -1.81600
O98         O  0.53502804  0.71611339  0.24507287    -0.72300
O99         O  0.50251666  0.75277111  0.30134330    -0.72100
O100        O  0.54053212  0.77156963  0.22542718    -0.71600
O101        O  0.50811843  0.69783332  0.26871890    -0.72300
O102        O  0.52177016  0.74847759  0.19845662    -0.71900
O103        O  0.50929034  0.78806387  0.28177677    -0.72400
O104        O  0.45101035  0.78713964  0.22485717    -0.71800
O105        O  0.45378753  0.73121422  0.28588104    -0.72600
O106        O  0.48570435  0.80639478  0.23386606    -0.72000
O107        O  0.43284193  0.74161943  0.25243288    -0.72500
O108        O  0.46487403  0.72963969  0.19444067    -0.72400
O109        O  0.48734586  0.70347556  0.21496595    -0.72200
C110        C  0.52796826  0.69706720  0.25620419     0.79600
C111        C  0.50428504  0.77618510  0.30138360     0.80100
C112        C  0.54107501  0.75867836  0.20573290     0.79100
C113        C  0.46252285  0.80652766  0.23114303     0.79500
C114        C  0.43415867  0.73874477  0.27569047     0.80600
C115        C  0.47847259  0.71028619  0.19483332     0.79700
Zn116      Zn  0.54090629  0.27092404  0.74182671     1.49700
Zn117      Zn  0.49350470  0.25639627  0.71033253     1.49400
Zn118      Zn  0.50837262  0.22456479  0.75819647     1.49100
Zn119      Zn  0.49041801  0.27384546  0.75831002     1.49500
O120        O  0.51059970  0.25455879  0.74016224    -1.81600
O121        O  0.55165214  0.27407654  0.70626589    -0.72300
O122        O  0.49118545  0.22112348  0.70045336    -0.72100
O123        O  0.54344367  0.21176994  0.76003201    -0.71600
O124        O  0.51751184  0.26836808  0.68494348    -0.72300
O125        O  0.56568338  0.24512063  0.75223420    -0.71900
O126        O  0.49528857  0.19942437  0.73486238    -0.72400
O127        O  0.46209070  0.25471606  0.76860946    -0.71800
O128        O  0.46080103  0.27614175  0.71566205    -0.72600
O129        O  0.48699433  0.23143925  0.78996068    -0.72000
O130        O  0.47873877  0.30254817  0.73985431    -0.72500
O131        O  0.50800745  0.28455389  0.78704436    -0.72400
O132        O  0.53580369  0.30255640  0.76400390    -0.72200
C133        C  0.54080377  0.26915920  0.68619561     0.79600
C134        C  0.49476407  0.20075630  0.71154227     0.80100
C135        C  0.56372551  0.22174065  0.75410708     0.79100
C136        C  0.46738545  0.24443639  0.78859392     0.79500
C137        C  0.45984039  0.29567018  0.72870729     0.80600
C138        C  0.52137492  0.30285713  0.78259488     0.79700
Zn139      Zn  0.25870741  0.55110584  0.72640447     1.49700
Zn140      Zn  0.25102093  0.49278039  0.74149371     1.49400
Zn141      Zn  0.29963829  0.51669186  0.72551954     1.49100
Zn142      Zn  0.27014860  0.53452149  0.77549562     1.49500
O143        O  0.27029537  0.52211487  0.74328032    -1.81600
O144        O  0.22819724  0.54131945  0.70977855    -0.72300
O145        O  0.27294472  0.46344151  0.73124146    -0.72100
O146        O  0.29053420  0.52652441  0.68914791    -0.71600
O147        O  0.22062039  0.50217190  0.71984185    -0.72300
O148        O  0.28282755  0.56307200  0.70293265    -0.71900
O149        O  0.30921905  0.48112122  0.73030826    -0.72400
O150        O  0.30514084  0.54566853  0.78063920    -0.71800
O151        O  0.24482017  0.47998221  0.77629023    -0.72600
O152        O  0.32413834  0.53536706  0.74599686    -0.72000
O153        O  0.26819947  0.50536242  0.79744746    -0.72500
O154        O  0.23838406  0.55622605  0.77699615    -0.72400
O155        O  0.25095704  0.57951743  0.74708684    -0.72200
C156        C  0.21476283  0.52232009  0.70868552     0.79600
C157        C  0.29624818  0.46190820  0.73268124     0.80100
C158        C  0.28268323  0.54835205  0.68529648     0.79100
C159        C  0.32331433  0.53580009  0.76947129     0.79500
C160        C  0.25784667  0.48467131  0.79509725     0.80600
C161        C  0.23414549  0.57341087  0.76152892     0.79700
Zn162      Zn  0.36462211  0.40599866  0.88316342     1.49700
Zn163      Zn  0.35703591  0.35425075  0.85182994     1.49400
Zn164      Zn  0.39972319  0.39317785  0.83624937     1.49100
Zn165      Zn  0.40460929  0.36193134  0.88565159     1.49500
O166        O  0.38101257  0.37892360  0.86408709    -1.81600
O167        O  0.32709522  0.40317839  0.87703829    -0.72300
O168        O  0.35731391  0.35554500  0.81341406    -0.72100
O169        O  0.39817782  0.43078053  0.83795788    -0.71600
O170        O  0.32176444  0.36503825  0.86297513    -0.72300
O171        O  0.37819979  0.44129676  0.87180690    -0.71900
O172        O  0.38653583  0.38169389  0.80228050    -0.72400
O173        O  0.43990813  0.37359721  0.87869755    -0.71800
O174        O  0.36673724  0.31792506  0.86387440    -0.72600
O175        O  0.43668330  0.38643363  0.84015637    -0.72000
O176        O  0.40249706  0.32445315  0.88191143    -0.72500
O177        O  0.39587465  0.36873946  0.92131868    -0.72400
O178        O  0.36942053  0.39984177  0.92122410    -0.72200
C179        C  0.31296995  0.38549286  0.87080202     0.79600
C180        C  0.36936628  0.36686299  0.79664968     0.80100
C181        C  0.39073908  0.44733724  0.85278802     0.79100
C182        C  0.44969332  0.38174573  0.85903736     0.79500
C183        C  0.38607832  0.30965824  0.87447622     0.80600
C184        C  0.38205936  0.38370645  0.93287705     0.79700
N185        N  0.28663990  0.38886771  0.87266555    -0.01000
C186        C  0.26983287  0.37416852  0.88419870     0.01600
C187        C  0.24699634  0.38488925  0.88381526    -0.21300
C188        C  0.24919756  0.40671565  0.87194041    -0.21500
C189        C  0.27330128  0.40886220  0.86507085     0.01500
H190        H  0.23049290  0.37773158  0.89201061     0.15300
H191        H  0.23447984  0.41928709  0.86762730     0.15300
N192        N  0.39791441  0.47281351  0.84788158    -0.01000
C193        C  0.42126792  0.47933517  0.85447150     0.01600
C194        C  0.43487483  0.48564083  0.83408964    -0.21300
C195        C  0.41928483  0.48647470  0.81491470    -0.21500
C196        C  0.39656666  0.48029923  0.82387885     0.01500
H197        H  0.45290220  0.49364727  0.83385377     0.15300
H198        H  0.42335607  0.49482670  0.79739664     0.15300
N199        N  0.47537063  0.38810316  0.85856192    -0.01000
C200        C  0.48616614  0.40513291  0.87322282     0.01600
C201        C  0.50671163  0.41466825  0.86217428    -0.21300
C202        C  0.50926800  0.40304459  0.84035908    -0.21500
C203        C  0.49032494  0.38648784  0.83858525     0.01500
H204        H  0.51921572  0.42796726  0.86979779     0.15300
H205        H  0.52490408  0.40454094  0.82830644     0.15300
N206        N  0.36352427  0.36224971  0.77108682    -0.01000
C207        C  0.34186751  0.36897729  0.76026205     0.01600
C208        C  0.33501198  0.35178714  0.74309054    -0.21300
C209        C  0.35257911  0.33421955  0.74265074    -0.21500
C210        C  0.36998663  0.34089520  0.75950145     0.01500
H211        H  0.32012553  0.35322537  0.73019010     0.15300
H212        H  0.35382886  0.31949936  0.72946602     0.15300
N213        N  0.38993666  0.28338169  0.87848572    -0.01000
C214        C  0.38079591  0.26946603  0.89741862     0.01600
C215        C  0.39497351  0.24893080  0.90174106    -0.21300
C216        C  0.41373143  0.24975859  0.88571916    -0.21500
C217        C  0.41059696  0.27071354  0.87175724     0.01500
H218        H  0.39165246  0.23454896  0.91505440     0.15300
H219        H  0.42757864  0.23572480  0.88348338     0.15300
N220        N  0.38130276  0.38198101  0.95946291    -0.01000
C221        C  0.40248809  0.38743494  0.97143227     0.01600
C222        C  0.41040587  0.36762399  0.98527429    -0.21300
C223        C  0.39279755  0.35020049  0.98383323    -0.21500
C224        C  0.37437333  0.35996554  0.96959176     0.01500
H225        H  0.42505399  0.36738883  0.99846996     0.15300
H226        H  0.39139084  0.33438849  0.99581927     0.15300
Zn227      Zn  0.24931534  0.24812812  0.96963585     1.49700
Zn228      Zn  0.24288952  0.29381492  0.00685020     1.49400
Zn229      Zn  0.23606316  0.24239784  0.02122790     1.49100
Zn230      Zn  0.28693360  0.25541834  0.01465202     1.49500
O231        O  0.25555393  0.26168297  0.00112772    -1.81600
O232        O  0.24140470  0.27720617  0.94701259    -0.72300
O233        O  0.21223208  0.28969788  0.03004405    -0.72100
O234        O  0.20522509  0.23428626  0.00497813    -0.71600
O235        O  0.23707297  0.30808967  0.97336718    -0.72300
O236        O  0.22601654  0.21719236  0.97511989    -0.71900
O237        O  0.22909344  0.26003292  0.05167315    -0.72400
O238        O  0.28234183  0.23251776  0.04603723    -0.71800
O239        O  0.27151535  0.31604520  0.01565869    -0.72600
O240        O  0.25279135  0.21155229  0.02907331    -0.72000
O241        O  0.30211874  0.28896230  0.01901272    -0.72500
O242        O  0.30839817  0.24465030  0.98623666    -0.72400
O243        O  0.28244215  0.24135514  0.95511819    -0.72200
C244        C  0.24170142  0.30021342  0.95189235     0.79600
C245        C  0.21109711  0.27394786  0.04761451     0.80100
C246        C  0.20891557  0.21608610  0.99125614     0.79100
C247        C  0.26670223  0.21495834  0.04702410     0.79500
C248        C  0.29422747  0.31067842  0.01471671     0.80600
C249        C  0.30401826  0.24436234  0.96325143     0.79700
Zn250      Zn  0.72578024  0.54919627  0.25440470     1.49700
Zn251      Zn  0.72894643  0.52038025  0.30006702     1.49400
Zn252      Zn  0.73478044  0.48991874  0.25237438     1.49100
Zn253      Zn  0.77514999  0.52916158  0.26265966     1.49500
O254        O  0.74191700  0.52083135  0.26764956    -1.81600
O255        O  0.70899156  0.56676091  0.28069356    -0.72300
O256        O  0.73329483  0.48553364  0.31207280    -0.72100
O257        O  0.70807828  0.49654229  0.22608608    -0.71600
O258        O  0.69286704  0.53341336  0.29535308    -0.72300
O259        O  0.70273984  0.53736960  0.22837001    -0.71900
O260        O  0.72546515  0.46484844  0.27826325    -0.72400
O261        O  0.79283454  0.49768015  0.26088313    -0.71800
O262        O  0.75436799  0.53977463  0.31849126    -0.72600
O263        O  0.76683698  0.47282526  0.24251303    -0.72000
O264        O  0.78712917  0.54284617  0.29488287    -0.72500
O265        O  0.77609534  0.54748165  0.22927446    -0.72400
O266        O  0.74786062  0.57362733  0.24052034    -0.72200
C267        C  0.69018697  0.55431249  0.28482581     0.79600
C268        C  0.73214516  0.46528261  0.30059945     0.80100
C269        C  0.69749735  0.51654359  0.21912838     0.79100
C270        C  0.78755158  0.47664936  0.25258685     0.79500
C271        C  0.77707423  0.53538108  0.31471503     0.80600
C272        C  0.76171984  0.56529269  0.22417294     0.79700
Zn273      Zn  0.27506402  0.74185702  0.54201347     1.49700
Zn274      Zn  0.25798017  0.70987005  0.49333091     1.49400
Zn275      Zn  0.23441154  0.75979200  0.50647779     1.49100
Zn276      Zn  0.29252224  0.74932323  0.49247656     1.49500
O277        O  0.26320259  0.73989485  0.50956369    -1.81600
O278        O  0.28412930  0.70680828  0.55012045    -0.72300
O279        O  0.22240051  0.70084527  0.49808221    -0.72100
O280        O  0.22261324  0.76974079  0.54076539    -0.71600
O281        O  0.27534405  0.68577112  0.51576637    -0.72300
O282        O  0.24616865  0.74568529  0.56340926    -0.71900
O283        O  0.20463305  0.73738642  0.49936776    -0.72400
O284        O  0.28376876  0.77932651  0.47335076    -0.71800
O285        O  0.26895893  0.71654205  0.45645509    -0.72600
O286        O  0.24447007  0.78765563  0.48142910    -0.72000
O287        O  0.30511652  0.72424316  0.47030151    -0.72500
O288        O  0.32007466  0.75525834  0.51438371    -0.72400
O289        O  0.29764292  0.77278426  0.54205641    -0.72200
C290        C  0.27751388  0.68713970  0.53911997     0.79600
C291        C  0.20328166  0.71389914  0.50089124     0.80100
C292        C  0.22592109  0.75638174  0.55984744     0.79100
C293        C  0.26471671  0.79247731  0.47023310     0.79500
C294        C  0.29093212  0.72330330  0.45234031     0.80600
C295        C  0.31496836  0.77410799  0.52650403     0.79700
Zn296      Zn  0.64068539  0.63466862  0.14979000     1.49700
Zn297      Zn  0.61002815  0.64707770  0.09901383     1.49400
Zn298      Zn  0.63911565  0.59630381  0.10532974     1.49100
Zn299      Zn  0.59097240  0.60367058  0.13721406     1.49500
O300        O  0.61988354  0.62093475  0.12305560    -1.81600
O301        O  0.63729430  0.67269426  0.14826418    -0.72300
O302        O  0.62145852  0.63787142  0.06258919    -0.72100
O303        O  0.67516784  0.60126459  0.11136522    -0.71600
O304        O  0.62207737  0.68190644  0.11148409    -0.72300
O305        O  0.67810508  0.62701734  0.14263835    -0.71900
O306        O  0.63510338  0.59983655  0.06881823    -0.72400
O307        O  0.59409588  0.56539371  0.13325821    -0.71800
O308        O  0.57225490  0.64832838  0.09898348    -0.72600
O309        O  0.62985069  0.56137084  0.11463521    -0.72000
O310        O  0.55810794  0.61857751  0.12333367    -0.72500
O311        O  0.59160881  0.60730819  0.17434104    -0.72400
O312        O  0.62823289  0.62162216  0.18455209    -0.72200
C313        C  0.63104039  0.68868756  0.13209060     0.79600
C314        C  0.62960640  0.61733118  0.05422900     0.80100
C315        C  0.68815814  0.61384545  0.12597379     0.79100
C316        C  0.61153030  0.55182665  0.12533930     0.79500
C317        C  0.55430613  0.63669204  0.10866330     0.80600
C318        C  0.60747139  0.61243417  0.19065898     0.79700
N319        N  0.63380226  0.61332752  0.02822014    -0.01000
C320        C  0.65613155  0.61882720  0.01817211     0.01600
C321        C  0.66501057  0.59926713  0.00473611    -0.21300
C322        C  0.64755966  0.58170512  0.00484770    -0.21500
C323        C  0.62845640  0.59070108  0.01858177     0.01500
H324        H  0.68089410  0.59920446  0.99293140     0.15300
H325        H  0.64760432  0.56538040  0.99360280     0.15300
N326        N  0.61061573  0.52529526  0.12797976    -0.01000
C327        C  0.59885230  0.50944169  0.11266330     0.01600
C328        C  0.60541644  0.48544067  0.11759028    -0.21300
C329        C  0.62195585  0.48601543  0.13595464    -0.21500
C330        C  0.62497812  0.51035071  0.14247126     0.01500
H331        H  0.59883616  0.46907609  0.10858108     0.15300
H332        H  0.63086851  0.47009430  0.14390457     0.15300
N333        N  0.71442130  0.61360621  0.12228355    -0.01000
C334        C  0.72370308  0.62086634  0.10020935     0.01600
C335        C  0.74062818  0.60427826  0.09151985    -0.21300
C336        C  0.74332130  0.58680662  0.10908714    -0.21500
C337        C  0.72793187  0.59319281  0.12811775     0.01500
H338        H  0.75205800  0.60641620  0.07548737     0.15300
H339        H  0.75774826  0.57317107  0.10937382     0.15300
N340        N  0.52956466  0.64439612  0.10236472    -0.01000
C341        C  0.52329296  0.64223726  0.07828711     0.01600
C342        C  0.51808710  0.66494641  0.06809197    -0.21300
C343        C  0.51800570  0.68133600  0.08673578    -0.21500
C344        C  0.52297458  0.66810147  0.10774092     0.01500
H345        H  0.51058689  0.66846562  0.05012424     0.15300
H346        H  0.51058132  0.69977708  0.08574419     0.15300
N347        N  0.63522098  0.71463520  0.13731552    -0.01000
C348        C  0.65674368  0.72574821  0.13078928     0.01600
C349        C  0.66524551  0.74034661  0.14952361    -0.21300
C350        C  0.64855406  0.73936124  0.16775806    -0.21500
C351        C  0.62999491  0.72426977  0.15993451     0.01500
H352        H  0.68031382  0.75311549  0.14879932     0.15300
H353        H  0.64839915  0.75120072  0.18359037     0.15300
N354        N  0.60163558  0.60625137  0.21601013    -0.01000
C355        C  0.57784816  0.60914783  0.22335789     0.01600
C356        C  0.56860263  0.58749974  0.23268012    -0.21300
C357        C  0.58720923  0.57112002  0.23304193    -0.21500
C358        C  0.60774958  0.58324131  0.22460103     0.01500
H359        H  0.55131826  0.58478535  0.24186192     0.15300
H360        H  0.58660564  0.55394392  0.24308208     0.15300
Zn361      Zn  0.72901336  0.74501091  0.95941001     1.49700
Zn362      Zn  0.70203914  0.74066977  0.00560649     1.49400
Zn363      Zn  0.76197401  0.74071140  0.00612685     1.49100
Zn364      Zn  0.72782183  0.78569074  0.00473963     1.49500
O365        O  0.73217386  0.75351443  0.99313447    -1.81600
O366        O  0.71226008  0.71002517  0.96106265    -0.72300
O367        O  0.71133969  0.71547287  0.03026524    -0.72100
O368        O  0.78216721  0.72704615  0.97787074    -0.71600
O369        O  0.68172396  0.72708889  0.97985699    -0.72300
O370        O  0.76311640  0.74417415  0.94646321    -0.71900
O371        O  0.75197799  0.71559832  0.03360886    -0.72400
O372        O  0.76082257  0.80130784  0.00466267    -0.71800
O373        O  0.68100549  0.76493479  0.02141098    -0.72600
O374        O  0.78474245  0.76977572  0.01418971    -0.72000
O375        O  0.71228737  0.78074763  0.03954045    -0.72500
O376        O  0.70878999  0.79959789  0.97629994    -0.72400
O377        O  0.71595930  0.77669193  0.94347966    -0.72200
C378        C  0.69211537  0.70784252  0.97267167     0.79600
C379        C  0.73084835  0.70752694  0.04019110     0.80100
C380        C  0.78271036  0.73699402  0.95661159     0.79100
C381        C  0.78200071  0.79248167  0.00845088     0.79500
C382        C  0.69171961  0.76990494  0.04103386     0.80600
C383        C  0.71732053  0.79740269  0.95456192     0.79700
Zn384      Zn  0.10556924  0.59862400  0.64615375     1.49700
Zn385      Zn  0.13294553  0.60408499  0.59509097     1.49400
Zn386      Zn  0.09472962  0.64605379  0.61158252     1.49100
Zn387      Zn  0.14710321  0.64056181  0.64103572     1.49500
O388        O  0.12017077  0.62276846  0.62348268    -1.81600
O389        O  0.11768855  0.56336217  0.63828305    -0.72300
O390        O  0.12174486  0.61872573  0.56139509    -0.72100
O391        O  0.05943227  0.63432212  0.62319676    -0.71600
O392        O  0.12633503  0.56668636  0.59865510    -0.72300
O393        O  0.06823341  0.59959295  0.64316589    -0.71900
O394        O  0.09559017  0.64748995  0.57362574    -0.72400
O395        O  0.14351122  0.67829733  0.63330377    -0.71800
O396        O  0.16986223  0.60549799  0.59634436    -0.72600
O397        O  0.10449045  0.68169801  0.62195163    -0.72000
O398        O  0.18146610  0.62707110  0.62877876    -0.72500
O399        O  0.14317690  0.63600243  0.67953883    -0.72400
O400        O  0.11418938  0.60753150  0.68174110    -0.72200
C401        C  0.12388006  0.55352493  0.61798135     0.79600
C402        C  0.10700886  0.63637017  0.55646221     0.80100
C403        C  0.05253667  0.61479662  0.63462733     0.79100
C404        C  0.12493771  0.69162793  0.62768646     0.79500
C405        C  0.18672986  0.61369385  0.61017627     0.80600
C406        C  0.12891242  0.62230762  0.69229674     0.79700
N407        N  0.02680218  0.60963468  0.63880693    -0.01000
C408        C  0.01546438  0.58837750  0.63169943     0.01600
C409        C  0.99698104  0.58194235  0.64762155    -0.21300
C410        C  0.99643336  0.59921347  0.66526972    -0.21500
C411        C  0.01467546  0.61574507  0.65983551     0.01500
H412        H  0.98398348  0.56719807  0.64551617     0.15300
H413        H  0.98322396  0.60040041  0.67993230     0.15300
N414        N  0.12672370  0.71836762  0.62841866    -0.01000
C415        C  0.10958579  0.73427433  0.63744079     0.01600
C416        C  0.11723969  0.75831066  0.63561505    -0.21300
C417        C  0.13972427  0.75781935  0.62539736    -0.21500
C418        C  0.14524474  0.73351577  0.62068299     0.01500
H419        H  0.10776322  0.77449022  0.64212946     0.15300
H420        H  0.15056105  0.77372276  0.62061528     0.15300
N421        N  0.10299373  0.64425580  0.53131731    -0.01000
C422        C  0.08211319  0.63908874  0.51857342     0.01600
C423        C  0.07671914  0.65765123  0.50217080    -0.21300
C424        C  0.09452942  0.67479760  0.50429104    -0.21500
C425        C  0.11056302  0.66650438  0.52202076     0.01500
H426        H  0.06256070  0.65764745  0.48847735     0.15300
H427        H  0.09671350  0.69059522  0.49246829     0.15300
N428        N  0.12887485  0.62322797  0.71898607    -0.01000
C429        C  0.10747906  0.62956318  0.73047117     0.01600
C430        C  0.10013002  0.61137830  0.74648128    -0.21300
C431        C  0.11847280  0.59463742  0.74747166    -0.21500
C432        C  0.13639262  0.60261231  0.73148637     0.01500
H433        H  0.08526953  0.61257592  0.75948905     0.15300
H434        H  0.12004297  0.58049468  0.76134471     0.15300
N435        N  0.13041674  0.52763542  0.61712452    -0.01000
C436        C  0.12777654  0.51224851  0.59757128     0.01600
C437        C  0.14217171  0.49158293  0.60037063    -0.21300
C438        C  0.15365311  0.49362965  0.62227401    -0.21500
C439        C  0.14615898  0.51557619  0.63245557     0.01500
H440        H  0.14252157  0.47555740  0.58869892     0.15300
H441        H  0.16595256  0.48020567  0.63025488     0.15300
N442        N  0.21184266  0.60666538  0.60453770    -0.01000
C443        C  0.21688115  0.58229806  0.60854654     0.01600
C444        C  0.21716980  0.56978909  0.58653899    -0.21300
C445        C  0.21731096  0.58729663  0.56863991    -0.21500
C446        C  0.21826525  0.60965478  0.58056550     0.01500
H447        H  0.22223766  0.55082227  0.58351109     0.15300
H448        H  0.22131465  0.58377347  0.54962007     0.15300
Zn449      Zn  0.98419424  0.76642230  0.77483957     1.49700
Zn450      Zn  0.99890149  0.71595744  0.77054398     1.49400
Zn451      Zn  0.98888338  0.75158535  0.72439834     1.49100
Zn452      Zn  0.03459765  0.76175721  0.76008828     1.49500
O453        O  0.00363035  0.74704604  0.75552513    -1.81600
O454        O  0.95418764  0.74885294  0.78318888    -0.72300
O455        O  0.98768221  0.69300663  0.74397011    -0.72100
O456        O  0.95787907  0.77382365  0.72955231    -0.71600
O457        O  0.97640635  0.72070013  0.80167372    -0.72300
O458        O  0.97594389  0.79671686  0.75706944    -0.71900
O459        O  0.98404352  0.71748603  0.71141386    -0.72400
O460        O  0.04695598  0.76844911  0.72605727    -0.71800
O461        O  0.03287983  0.70206320  0.77448357    -0.72600
O462        O  0.01565416  0.76131525  0.70105899    -0.72000
O463        O  0.05806846  0.73379740  0.76819350    -0.72500
O464        O  0.03025716  0.79214474  0.78393527    -0.72400
O465        O  0.00110630  0.77439479  0.80518946    -0.72200
C466        C  0.95804758  0.73545349  0.80163905     0.79600
C467        C  0.98742925  0.69625324  0.72080699     0.80100
C468        C  0.95720164  0.79176963  0.74472390     0.79100
C469        C  0.03854764  0.76219275  0.70522673     0.79500
C470        C  0.05386677  0.71070623  0.76913109     0.80600
C471        C  0.01508803  0.79244290  0.80189100     0.79700
Zn472      Zn  0.89814814  0.89245976  0.90554954     1.49700
Zn473      Zn  0.85666167  0.89150842  0.86288488     1.49400
Zn474      Zn  0.89777287  0.84894502  0.86395130     1.49100
Zn475      Zn  0.85518499  0.85023800  0.90663653     1.49500
O476        O  0.87694145  0.87060665  0.88495995    -1.81600
O477        O  0.89500591  0.92941465  0.89456460    -0.72300
O478        O  0.85567783  0.87737484  0.82752225    -0.72100
O479        O  0.93442293  0.86062849  0.86589150    -0.71600
O480        O  0.87003815  0.92739762  0.86262454    -0.72300
O481        O  0.93444203  0.88528193  0.89824641    -0.71900
O482        O  0.88463781  0.84871313  0.82778742    -0.72400
O483        O  0.86328651  0.81236249  0.90194733    -0.71800
O484        O  0.82114897  0.89169172  0.87536464    -0.72600
O485        O  0.89508139  0.81291394  0.87650438    -0.72000
O486        O  0.81804587  0.86075196  0.90198647    -0.72500
O487        O  0.86322800  0.85768552  0.94301650    -0.72400
O488        O  0.89131894  0.88708676  0.94317640    -0.72200
C489        C  0.88451920  0.93976378  0.87624366     0.79600
C490        C  0.86752550  0.86032787  0.81655979     0.80100
C491        C  0.94594758  0.87446319  0.88096792     0.79100
C492        C  0.88054171  0.80101566  0.89059978     0.79500
C493        C  0.80823597  0.87866611  0.89002348     0.80600
C494        C  0.87725645  0.87220902  0.95479554     0.79700
N495        N  0.87765786  0.87099426  0.98153075    -0.01000
C496        C  0.86490440  0.85509206  0.99634454     0.01600
C497        C  0.87170651  0.85733681  0.02046332    -0.21300
C498        C  0.88891665  0.87512094  0.02128633    -0.21500
C499        C  0.89233455  0.88333525  0.99763852     0.01500
H500        H  0.86421207  0.84753283  0.03597787     0.15300
H501        H  0.89793381  0.88171953  0.03753266     0.15300
N502        N  0.85969137  0.85228878  0.79228879    -0.01000
C503        C  0.83684086  0.85665383  0.78285759     0.01600
C504        C  0.82942951  0.83738778  0.76841156    -0.21300
C505        C  0.84812931  0.82117850  0.76750789    -0.21500
C506        C  0.86671577  0.83052465  0.78173506     0.01500
H507        H  0.81336092  0.83677764  0.75695896     0.15300
H508        H  0.84901453  0.80567229  0.75522107     0.15300
N509        N  0.88519280  0.77485895  0.89523918    -0.01000
C510        C  0.90540881  0.76201723  0.88753658     0.01600
C511        C  0.90926679  0.74139258  0.90171487    -0.21300
C512        C  0.89090558  0.74048434  0.91819020    -0.21500
C513        C  0.87615205  0.76078626  0.91409959     0.01500
H514        H  0.92269401  0.72708486  0.89871689     0.15300
H515        H  0.88749588  0.72523292  0.93047848     0.15300
N516        N  0.78303588  0.88628051  0.89481980    -0.01000
C517        C  0.77498315  0.90939859  0.88858887     0.01600
C518        C  0.75967942  0.91879173  0.90621773    -0.21300
C519        C  0.75661446  0.90087442  0.92314440    -0.21500
C520        C  0.77040152  0.88081549  0.91584088     0.01500
H521        H  0.74900321  0.93552460  0.90504124     0.15300
H522        H  0.74303181  0.90141006  0.93752812     0.15300
N523        N  0.97163165  0.88051808  0.87686005    -0.01000
C524        C  0.98180933  0.87888921  0.85401101     0.01600
C525        C  0.99476667  0.90003108  0.84862096    -0.21300
C526        C  0.99411970  0.91438607  0.86885261    -0.21500
C527        C  0.98139069  0.90156826  0.88650023     0.01500
H528        H  0.00672267  0.90321872  0.83319482     0.15300
H529        H  0.00548927  0.93033223  0.87180328     0.15300
N530        N  0.89063599  0.96505373  0.86938438    -0.01000
C531        C  0.88234066  0.97723626  0.84896872     0.01600
C532        C  0.89707854  0.99686988  0.84311919    -0.21300
C533        C  0.91482905  0.99768288  0.86033359    -0.21500
C534        C  0.91068834  0.97846605  0.87637625     0.01500
H535        H  0.89407083  0.01030942  0.82884056     0.15300
H536        H  0.92850884  0.01182088  0.86194655     0.15300
Zn537      Zn  0.64806114  0.13735178  0.59990257     1.49700
Zn538      Zn  0.64784145  0.09578208  0.64321434     1.49400
Zn539      Zn  0.60749454  0.14006440  0.64308060     1.49100
Zn540      Zn  0.60458635  0.09614323  0.60221655     1.49500
O541        O  0.62707351  0.11717445  0.62199227    -1.81600
O542        O  0.68496012  0.12563038  0.60202799    -0.72300
O543        O  0.65056466  0.11177439  0.67817003    -0.72100
O544        O  0.60816312  0.17561758  0.62888962    -0.71600
O545        O  0.68330136  0.09477425  0.62892626    -0.72300
O546        O  0.64185722  0.17492705  0.60629527    -0.71900
O547        O  0.62307931  0.14198189  0.67767918    -0.72400
O548        O  0.56920551  0.10435936  0.61202491    -0.71800
O549        O  0.63274346  0.05984557  0.64416852    -0.72600
O550        O  0.57125317  0.12838757  0.64460612    -0.72000
O551        O  0.60765007  0.05834729  0.61221502    -0.72500
O552        O  0.60757663  0.10450216  0.56453023    -0.72400
O553        O  0.63624755  0.13333997  0.56399821    -0.72200
C554        C  0.69544854  0.10779284  0.61351696     0.79600
C555        C  0.64018043  0.13018077  0.68862151     0.80100
C556        C  0.62372764  0.18681501  0.61539902     0.79100
C557        C  0.55881680  0.11492186  0.63004972     0.79500
C558        C  0.61777451  0.04771245  0.63067415     0.80600
C559        C  0.62019937  0.12059089  0.55277829     0.79700
N560        N  0.61040128  0.02267790  0.63805272    -0.01000
C561        C  0.58866031  0.01159385  0.63162887     0.01600
C562        C  0.57935717  0.99852657  0.65129956    -0.21300
C563        C  0.59578861  0.99979805  0.66961821    -0.21500
C564        C  0.61497982  0.01376143  0.66117153     0.01500
H565        H  0.56411160  0.98593780  0.65123310     0.15300
H566        H  0.59529018  0.98870554  0.68608609     0.15300
N567        N  0.61429039  0.12670141  0.52733374    -0.01000
C568        C  0.59309420  0.11982903  0.51581495     0.01600
C569        C  0.58564270  0.13789194  0.49960465    -0.21300
C570        C  0.60281184  0.15582241  0.49984241    -0.21500
C571        C  0.62040747  0.14867708  0.51638850     0.01500
H572        H  0.57086273  0.13665659  0.48652921     0.15300
H573        H  0.60357503  0.17145697  0.48747961     0.15300
N574        N  0.64964978  0.13951461  0.71179685    -0.01000
C575        C  0.64520756  0.16274102  0.72061654     0.01600
C576        C  0.66452251  0.17078051  0.73448821    -0.21300
C577        C  0.68103460  0.15225540  0.73539243    -0.21500
C578        C  0.67168102  0.13299069  0.72196997     0.01500
H579        H  0.66533124  0.18754841  0.74519573     0.15300
H580        H  0.69690768  0.15193791  0.74715635     0.15300
N581        N  0.53323644  0.10960300  0.63525751    -0.01000
C582        C  0.51861467  0.09223696  0.62455332     0.01600
C583        C  0.49805258  0.08802394  0.63851501    -0.21300
C584        C  0.49926061  0.10331291  0.65801378    -0.21500
C585        C  0.52053234  0.11658091  0.65560572     0.01500
H586        H  0.48305542  0.07591893  0.63423425     0.15300
H587        H  0.48502659  0.10606751  0.67145943     0.15300
N588        N  0.72054716  0.10061515  0.60738386    -0.01000
C589        C  0.73251005  0.10732129  0.58628533     0.01600
C590        C  0.74781420  0.08872738  0.57854312    -0.21300
C591        C  0.74646911  0.07040951  0.59533331    -0.21500
C592        C  0.73043282  0.07805060  0.61325711     0.01500
H593        H  0.76085366  0.08961203  0.56364578     0.15300
H594        H  0.75844887  0.05453867  0.59599967     0.15300
N595        N  0.61927195  0.21234148  0.60788729    -0.01000
C596        C  0.62916588  0.22104974  0.58655873     0.01600
C597        C  0.61169131  0.23264919  0.57249896    -0.21300
C598        C  0.59093227  0.23333598  0.58608464    -0.21500
C599        C  0.59616437  0.22216168  0.60821321     0.01500
H600        H  0.61484370  0.24312149  0.55591837     0.15300
H601        H  0.57511331  0.24456024  0.58185112     0.15300
Zn602      Zn  0.73233250  0.01004538  0.73229379     1.49700
Zn603      Zn  0.73424607  0.96004441  0.75037692     1.49400
Zn604      Zn  0.78214788  0.99154255  0.73649103     1.49100
Zn605      Zn  0.74836807  0.00774009  0.78205926     1.49500
O606        O  0.75117624  0.99034064  0.75212960    -1.81600
O607        O  0.72075063  0.99117752  0.70434003    -0.72300
O608        O  0.75870000  0.93440732  0.73901850    -0.72100
O609        O  0.77736331  0.01221400  0.70340801    -0.71600
O610        O  0.70193413  0.96634218  0.72994127    -0.72300
O611        O  0.75170336  0.03787008  0.72076398    -0.71900
O612        O  0.79283241  0.95604999  0.73417444    -0.72400
O613        O  0.78261273  0.00908368  0.79524470    -0.71800
O614        O  0.73224218  0.94907977  0.78559088    -0.72600
O615        O  0.80648921  0.00112451  0.76312170    -0.72000
O616        O  0.73429308  0.98390508  0.80676736    -0.72500
O617        O  0.72987480  0.04120349  0.77473488    -0.72400
O618        O  0.70411052  0.02295442  0.75021733    -0.72200
C619        C  0.70166236  0.97992160  0.71062859     0.79600
C620        C  0.78200721  0.93593592  0.73930326     0.80100
C621        C  0.76348458  0.03132548  0.70211023     0.79100
C622        C  0.80329640  0.00318415  0.78625390     0.79500
C623        C  0.73606758  0.96046208  0.80554537     0.80600
C624        C  0.71117111  0.04227316  0.76064541     0.79700
Zn625      Zn  0.79263773  0.24976069  0.48998626     1.49700
Zn626      Zn  0.73268288  0.25476881  0.49825215     1.49400
Zn627      Zn  0.76322485  0.20735405  0.48997928     1.49100
Zn628      Zn  0.77227048  0.24486380  0.53814448     1.49500
O629        O  0.76315838  0.23859170  0.50530505    -1.81600
O630        O  0.78144890  0.27633898  0.46772281    -0.72300
O631        O  0.70663297  0.22812681  0.49203954    -0.72100
O632        O  0.77772843  0.21338280  0.45376386    -0.71600
O633        O  0.74081855  0.28027939  0.47089410    -0.72300
O634        O  0.81072099  0.22491353  0.47163583    -0.71900
O635        O  0.72860714  0.19386448  0.49190702    -0.72400
O636        O  0.78271511  0.21046493  0.55009435    -0.71800
O637        O  0.71772774  0.26837748  0.52980703    -0.72600
O638        O  0.78190927  0.18807662  0.51579608    -0.72000
O639        O  0.74092109  0.24796949  0.55621065    -0.72500
O640        O  0.79201115  0.27861420  0.53601956    -0.72400
O641        O  0.81811653  0.26098353  0.51199111    -0.72200
C642        C  0.76140303  0.28635447  0.46121079     0.79600
C643        C  0.70799390  0.20465977  0.49360436     0.80100
C644        C  0.79944045  0.22184647  0.45200800     0.79100
C645        C  0.77823591  0.19018856  0.53892767     0.79500
C646        C  0.72039463  0.25680825  0.55002197     0.80600
C647        C  0.81075141  0.28018533  0.52214440     0.79700
Zn648      Zn  0.39593524  0.89309040  0.36093348     1.49700
Zn649      Zn  0.34738291  0.86123251  0.34914962     1.49400
Zn650      Zn  0.38125166  0.84563074  0.39648555     1.49100
Zn651      Zn  0.34905949  0.89553809  0.39727840     1.49500
O652        O  0.36870957  0.87368140  0.37587550    -1.81600
O653        O  0.39452263  0.89004736  0.32316960    -0.72300
O654        O  0.34818211  0.82338381  0.34988546    -0.72100
O655        O  0.41871535  0.84481218  0.39240817    -0.71600
O656        O  0.35888267  0.87297905  0.31409483    -0.72300
O657        O  0.42998641  0.87909474  0.37290561    -0.71900
O658        O  0.36691674  0.81147917  0.38410201    -0.72400
O659        O  0.35818702  0.88940789  0.43359930    -0.71800
O660        O  0.31118181  0.87028078  0.35650537    -0.72600
O661        O  0.37547469  0.85232292  0.43446408    -0.72000
O662        O  0.31210650  0.88811928  0.39305940    -0.72500
O663        O  0.35563745  0.93219819  0.38838979    -0.72400
O664        O  0.39065986  0.93097272  0.36768168    -0.72200
C665        C  0.37888077  0.88309133  0.30724322     0.79600
C666        C  0.35516632  0.80627209  0.36447301     0.80100
C667        C  0.43547844  0.85902146  0.38414582     0.79100
C668        C  0.36751829  0.87146168  0.44568961     0.79500
C669        C  0.30012018  0.87892726  0.37527443     0.80600
C670        C  0.37310974  0.94326201  0.37737874     0.79700
N671        N  0.27371709  0.87723560  0.37660110    -0.01000
C672        C  0.25988903  0.86356350  0.39257535     0.01600
C673        C  0.23586580  0.86296676  0.38487209    -0.21300
C674        C  0.23428747  0.87701736  0.36434181    -0.21500
C675        C  0.25736049  0.88577103  0.35966867     0.01500
H676        H  0.22084512  0.85342870  0.39352734     0.15300
H677        H  0.21781850  0.88117742  0.35423925     0.15300
N678        N  0.46083487  0.85249844  0.38906422    -0.01000
C679        C  0.47047981  0.85983953  0.41091012     0.01600
C680        C  0.47918185  0.83991519  0.42397242    -0.21300
C681        C  0.47767677  0.82008502  0.40905656    -0.21500
C682        C  0.46762398  0.82824208  0.38728478     0.01500
H683        H  0.48980210  0.84059959  0.44061201     0.15300
H684        H  0.48687740  0.80278703  0.41245170     0.15300
N685        N  0.36836122  0.87313729  0.47235264    -0.01000
C686        C  0.34908885  0.86557067  0.48658979     0.01600
C687        C  0.34429663  0.88217175  0.50502707    -0.21300
C688        C  0.36114576  0.90011834  0.50322937    -0.21500
C689        C  0.37591422  0.89429025  0.48369822     0.01500
H690        H  0.33173883  0.87987004  0.52016768     0.15300
H691        H  0.36406380  0.91452814  0.51651538     0.15300
N692        N  0.34903711  0.78095710  0.35826177    -0.01000
C693        C  0.32631587  0.77172764  0.36388209     0.01600
C694        C  0.31603211  0.76063471  0.34370034    -0.21300
C695        C  0.33286448  0.76131411  0.32553148    -0.21500
C696        C  0.35303403  0.77302009  0.33479048     0.01500
H697        H  0.29945654  0.74986836  0.34324567     0.15300
H698        H  0.33160284  0.75176826  0.30826299     0.15300
N699        N  0.38373786  0.88809939  0.28140750    -0.01000
C700        C  0.40754168  0.88763596  0.27371953     0.01600
C701        C  0.41418030  0.91002411  0.26378623    -0.21300
C702        C  0.39359325  0.92398038  0.26285195    -0.21500
C703        C  0.37484520  0.90961256  0.27182281     0.01500
H704        H  0.43091090  0.91418158  0.25412516     0.15300
H705        H  0.39161520  0.94064605  0.25213887     0.15300
N706        N  0.37294721  0.97003883  0.37612566    -0.01000
C707        C  0.38452942  0.98599808  0.39153395     0.01600
C708        C  0.37770826  0.00999768  0.38681146    -0.21300
C709        C  0.36120437  0.00938304  0.36840033    -0.21500
C710        C  0.35825419  0.98505019  0.36216385     0.01500
H711        H  0.38449478  0.02636061  0.39563411     0.15300
H712        H  0.35250753  0.02515888  0.35993960     0.15300
Zn713      Zn  0.24462601  0.00332713  0.26083671     1.49700
Zn714      Zn  0.24728899  0.95896248  0.22517515     1.49400
Zn715      Zn  0.24381224  0.00580949  0.19993506     1.49100
Zn716      Zn  0.28975412  0.00194952  0.22554326     1.49500
O717        O  0.25706948  0.99202538  0.22970016    -1.81600
O718        O  0.23304970  0.97383276  0.28181136    -0.72300
O719        O  0.21250216  0.96156868  0.20983602    -0.72100
O720        O  0.21924002  0.03043085  0.21052169    -0.71600
O721        O  0.24663099  0.94402428  0.25804973    -0.72300
O722        O  0.21900904  0.03124258  0.25147843    -0.71900
O723        O  0.22915264  0.98070225  0.17928698    -0.72400
O724        O  0.28689175  0.03740090  0.20959922    -0.71800
O725        O  0.27674779  0.94245130  0.20978800    -0.72600
O726        O  0.26757908  0.02212808  0.17852375    -0.72000
O727        O  0.30505171  0.97211289  0.20895946    -0.72500
O728        O  0.30474752  0.00120765  0.25893085    -0.72400
O729        O  0.27399987  0.01049103  0.28360954    -0.72200
C730        C  0.24120357  0.95190399  0.27914023     0.79600
C731        C  0.21010688  0.97413908  0.19025240     0.80100
C732        C  0.21127490  0.03925405  0.23054037     0.79100
C733        C  0.27524891  0.04074717  0.18958086     0.79500
C734        C  0.29863206  0.94982985  0.21344207     0.80600
C735        C  0.29623517  0.00381838  0.28041672     0.79700
Zn736      Zn  0.14593669  0.16258415  0.14422578     1.49700
Zn737      Zn  0.15259453  0.11043576  0.11516867     1.49400
Zn738      Zn  0.10529638  0.11964830  0.15045314     1.49100
Zn739      Zn  0.10949786  0.15064392  0.09989339     1.49500
O740        O  0.12849229  0.13565714  0.12714750    -1.81600
O741        O  0.18320696  0.15875232  0.13895029    -0.72300
O742        O  0.14182538  0.07425034  0.12639994    -0.72100
O743        O  0.11569717  0.12669209  0.18640014    -0.71600
O744        O  0.18858478  0.11999888  0.12682929    -0.72300
O745        O  0.14220674  0.15717613  0.18114907    -0.71900
O746        O  0.10759200  0.08221737  0.14684583    -0.72400
O747        O  0.07290201  0.14240448  0.10426375    -0.71800
O748        O  0.15168896  0.11159706  0.07701967    -0.72600
O749        O  0.06907900  0.12948608  0.14279778    -0.72000
O750        O  0.12263100  0.13825130  0.06593816    -0.72500
O751        O  0.11061352  0.18891802  0.10182154    -0.72400
O752        O  0.13329432  0.19802250  0.13416148    -0.72200
C753        C  0.19740346  0.14053111  0.13435950     0.79600
C754        C  0.12280124  0.06672322  0.13800928     0.80100
C755        C  0.13094740  0.14207795  0.19512086     0.79100
C756        C  0.05947850  0.13638542  0.12252529     0.79500
C757        C  0.13945313  0.12280569  0.06031359     0.80600
C758        C  0.11956492  0.20488815  0.11641909     0.79700
N759        N  0.14498762  0.11754110  0.03480523    -0.01000
C760        C  0.16653474  0.12454641  0.02397600     0.01600
C761        C  0.17492457  0.10653664  0.00831948    -0.21300
C762        C  0.15844469  0.08814067  0.00871373    -0.21500
C763        C  0.14007949  0.09508498  0.02452762     0.01500
H764        H  0.19017263  0.10773063  0.99575317     0.15300
H765        H  0.15854386  0.07249170  0.99653239     0.15300
N766        N  0.11835856  0.04056414  0.14237802    -0.01000
C767        C  0.12413277  0.03178077  0.16523350     0.01600
C768        C  0.10340819  0.02334707  0.17702126    -0.21300
C769        C  0.08523735  0.02344335  0.16033269    -0.21500
C770        C  0.09504628  0.03213541  0.13865750     0.01500
H771        H  0.10238054  0.01309596  0.19392979     0.15300
H772        H  0.06846136  0.01338065  0.16284932     0.15300
N773        N  0.03312727  0.13803902  0.11986709    -0.01000
C774        C  0.02065398  0.12996756  0.09973742     0.01600
C775        C  0.99926180  0.14293372  0.09654055    -0.21300
C776        C  0.99775098  0.15920080  0.11509504    -0.21500
C777        C  0.01850445  0.15629274  0.12914160     0.01500
H778        H  0.98508195  0.13934160  0.08330851     0.15300
H779        H  0.98245504  0.17128499  0.11861815     0.15300
N780        N  0.13739961  0.14147182  0.22079562    -0.01000
C781        C  0.15843518  0.13008943  0.22824844     0.01600
C782        C  0.17059337  0.14393465  0.24535392    -0.21300
C783        C  0.15658081  0.16404722  0.24966788    -0.21500
C784        C  0.13624259  0.16212035  0.23494143     0.01500
H785        H  0.18674300  0.13860801  0.25548564     0.15300
H786        H  0.15961701  0.17730094  0.26403236     0.15300
N787        N  0.11413281  0.23088147  0.11214272    -0.01000
C788        C  0.12035413  0.24210878  0.09045596     0.01600
C789        C  0.10255918  0.25849126  0.08309186    -0.21300
C790        C  0.08520018  0.25851476  0.10058743    -0.21500
C791        C  0.09231150  0.24191584  0.11847830     0.01500
H792        H  0.10346736  0.27147799  0.06805770     0.15300
H793        H  0.07033421  0.27162941  0.10134916     0.15300
N794        N  0.22350128  0.14333817  0.13924905    -0.01000
C795        C  0.23352951  0.13468956  0.16072560     0.01600
C796        C  0.24831151  0.15229306  0.17111658    -0.21300
C797        C  0.24921342  0.17152916  0.15544262    -0.21500
C798        C  0.23463189  0.16574692  0.13575266     0.01500
H799        H  0.26044102  0.14992437  0.18653368     0.15300
H800        H  0.26202802  0.18651393  0.15689264     0.15300
Zn801      Zn  0.84642310  0.39937490  0.35260870     1.49700
Zn802      Zn  0.84874521  0.35395031  0.39307542     1.49400
Zn803      Zn  0.88966509  0.35712354  0.35015904     1.49100
Zn804      Zn  0.88924794  0.39791686  0.39323069     1.49500
O805        O  0.86843358  0.37696885  0.37228352    -1.81600
O806        O  0.81118779  0.38695594  0.35530722    -0.72300
O807        O  0.85425072  0.31697664  0.38300284    -0.72100
O808        O  0.88003749  0.36520376  0.31472120    -0.71600
O809        O  0.81200462  0.36044396  0.38629564    -0.72300
O810        O  0.85564634  0.39786062  0.31551883    -0.71900
O811        O  0.88335610  0.31907375  0.35471981    -0.72400
O812        O  0.92489055  0.39879116  0.37944394    -0.71800
O813        O  0.85664517  0.35937414  0.43012916    -0.72600
O814        O  0.92654816  0.36860453  0.35214318    -0.72000
O815        O  0.88760142  0.38574262  0.42924802    -0.72500
O816        O  0.87493670  0.43352969  0.39453510    -0.72400
O817        O  0.84579300  0.43537915  0.36645985    -0.72200
C818        C  0.80017035  0.37216046  0.36975815     0.79600
C819        C  0.86801306  0.30630549  0.36726274     0.80100
C820        C  0.86833153  0.38215189  0.30349194     0.79100
C821        C  0.93688418  0.38649175  0.36336661     0.79500
C822        C  0.87267992  0.37224208  0.44135459     0.80600
C823        C  0.85783770  0.44550242  0.38374930     0.79700
N824        N  0.87064848  0.38412726  0.27696733    -0.01000
C825        C  0.85972458  0.40079116  0.26161165     0.01600
C826        C  0.86841152  0.39853786  0.23805927    -0.21300
C827        C  0.88466248  0.37965595  0.23817729    -0.21500
C828        C  0.88559635  0.37070886  0.26181580     0.01500
H829        H  0.86265847  0.40898456  0.22218213     0.15300
H830        H  0.89438652  0.37265105  0.22244446     0.15300
N831        N  0.86417642  0.28023940  0.36129886    -0.01000
C832        C  0.87251030  0.27108342  0.33938393     0.01600
C833        C  0.85472891  0.25722319  0.32825821    -0.21300
C834        C  0.83571777  0.25575496  0.34399501    -0.21500
C835        C  0.84193545  0.26872290  0.36475847     0.01500
H836        H  0.85672985  0.24597906  0.31211976     0.15300
H837        H  0.82086473  0.24294562  0.34189074     0.15300
N838        N  0.96124163  0.39497201  0.35585901    -0.01000
C839        C  0.97028007  0.39034821  0.33278063     0.01600
C840        C  0.97697831  0.41224975  0.32160023    -0.21300
C841        C  0.97508257  0.43015592  0.33855630    -0.21500
C842        C  0.96709232  0.41912008  0.35979589     0.01500
H843        H  0.98700628  0.41471385  0.30477274     0.15300
H844        H  0.98295057  0.44827837  0.33667581     0.15300
N845        N  0.87204062  0.37403371  0.46801573    -0.01000
C846        C  0.88241244  0.39349868  0.47987698     0.01600
C847        C  0.86717595  0.40224077  0.49793428    -0.21300
C848        C  0.84745776  0.38715617  0.49857808    -0.21500
C849        C  0.85113725  0.36932600  0.48103489     0.01500
H850        H  0.87155096  0.41601539  0.51142764     0.15300
H851        H  0.83390228  0.38687900  0.51299322     0.15300
N852        N  0.85044462  0.46955321  0.39323225    -0.01000
C853        C  0.82906553  0.48198800  0.38833892     0.01600
C854        C  0.82291188  0.49727836  0.40751715    -0.21300
C855        C  0.84056677  0.49502641  0.42455520    -0.21500
C856        C  0.85737766  0.47844560  0.41561380     0.01500
H857        H  0.80817094  0.51056458  0.40806385     0.15300
H858        H  0.84218046  0.50614609  0.44081854     0.15300
N859        N  0.77451170  0.36674692  0.36561916    -0.01000
C860        C  0.76099400  0.37458749  0.34610142     0.01600
C861        C  0.74060355  0.36005734  0.34315632    -0.21300
C862        C  0.74078091  0.34324595  0.36169954    -0.21500
C863        C  0.76134064  0.34779865  0.37541300     0.01500
H864        H  0.72589342  0.36297570  0.33036278     0.15300
H865        H  0.72655312  0.33012795  0.36576681     0.15300
Zn866      Zn  0.99661802  0.26709855  0.29372304     1.49700
Zn867      Zn  0.00339188  0.21952847  0.27003290     1.49400
Zn868      Zn  0.99487350  0.26271887  0.23361974     1.49100
Zn869      Zn  0.04152223  0.26656983  0.26529003     1.49500
O870        O  0.00969507  0.25332621  0.26405694    -1.81600
O871        O  0.98468088  0.24249267  0.31702440    -0.72300
O872        O  0.00261209  0.20281957  0.23740155    -0.72100
O873        O  0.96567777  0.28616419  0.24260172    -0.71600
O874        O  0.96921423  0.21994956  0.28830856    -0.72300
O875        O  0.96903655  0.28861452  0.28335493    -0.71900
O876        O  0.98650340  0.23190031  0.21406733    -0.72400
O877        O  0.05506232  0.26543948  0.23072498    -0.71800
O878        O  0.03599234  0.20646108  0.28243123    -0.72600
O879        O  0.02171872  0.27473288  0.20982478    -0.72000
O880        O  0.06012549  0.23968879  0.28274026    -0.72500
O881        O  0.03699619  0.30211842  0.28048625    -0.72400
O882        O  0.02047611  0.28563858  0.31276628    -0.72200
C883        C  0.96621580  0.23276263  0.30765955     0.79600
C884        C  0.99619614  0.21059251  0.21645645     0.80100
C885        C  0.95840730  0.29446625  0.26344135     0.79100
C886        C  0.04434049  0.26859140  0.21031809     0.79500
C887        C  0.05704007  0.21649292  0.27982291     0.80600
C888        C  0.02643243  0.30471468  0.30122676     0.79700
C889        C  0.00860705  0.33115659  0.33469189     0.26100
C890        C  0.01584290  0.32852008  0.30996483    -0.22000
C891        C  0.00715639  0.34583654  0.29299288     0.21000
C892        C  0.99109871  0.36460030  0.30021301     0.26000
C893        C  0.98383201  0.36745625  0.32498873    -0.22000
C894        C  0.99294680  0.35034539  0.34209458     0.20900
F895        F  0.98677447  0.35204431  0.36604313    -0.11900
F896        F  0.01631600  0.31471592  0.35178322    -0.14300
F897        F  0.98117720  0.37885750  0.28237389    -0.14300
F898        F  0.01247732  0.34345370  0.26888380    -0.11900
C899        C  0.91620588  0.25900508  0.34895047     0.26100
C900        C  0.89852393  0.26659085  0.33186900    -0.22000
C901        C  0.90380889  0.26321553  0.30679248     0.21000
C902        C  0.92467728  0.25032354  0.29916861     0.26000
C903        C  0.94183490  0.24168539  0.31624752    -0.22000
C904        C  0.93777020  0.24710788  0.34118722     0.20900
F905        F  0.95458531  0.24046481  0.35817404    -0.11900
F906        F  0.91218498  0.26204278  0.37322159    -0.14300
F907        F  0.92851499  0.24711959  0.27487615    -0.14300
F908        F  0.88809927  0.27169745  0.28951609    -0.11900
C909        C  0.93750635  0.33018472  0.28348635     0.26100
C910        C  0.93749925  0.31190938  0.26529551    -0.22000
C911        C  0.91732926  0.31055816  0.24966071     0.21000
C912        C  0.89856268  0.32808116  0.25125041     0.26000
C913        C  0.90047558  0.34840128  0.26716373    -0.22000
C914        C  0.92029165  0.34922634  0.28326269     0.20900
F915        F  0.92419227  0.36926660  0.29737151    -0.11900
F916        F  0.95467975  0.33002809  0.30114523    -0.14300
F917        F  0.87913751  0.32613657  0.23602785    -0.14300
F918        F  0.91560452  0.29218570  0.23307409    -0.11900
C919        C  0.04441107  0.25982016  0.16505155     0.26100
C920        C  0.05759067  0.26221936  0.18692360    -0.22000
C921        C  0.08254450  0.25512469  0.18655949     0.21000
C922        C  0.09382863  0.24659633  0.16485528     0.26000
C923        C  0.08028624  0.24380353  0.14320840    -0.22000
C924        C  0.05517050  0.24981447  0.14410043     0.20900
F925        F  0.04102196  0.24735680  0.12392915    -0.11900
F926        F  0.02092799  0.26756824  0.16358689    -0.14300
F927        F  0.11823729  0.24244446  0.16473078    -0.14300
F928        F  0.09634111  0.25707383  0.20701372    -0.11900
C929        C  0.09890503  0.21374507  0.26089376     0.26100
C930        C  0.07759203  0.20171860  0.26911343    -0.22000
C931        C  0.07459917  0.17669695  0.26273874     0.21000
C932        C  0.09261775  0.16413275  0.24924255     0.26000
C933        C  0.11394530  0.17625420  0.24161989    -0.22000
C934        C  0.11646542  0.20132035  0.24709047     0.20900
F935        F  0.13674936  0.21365454  0.23987439    -0.11900
F936        F  0.10297352  0.23776842  0.26601519    -0.14300
F937        F  0.08979523  0.13977893  0.24482214    -0.14300
F938        F  0.05435757  0.16418324  0.26970689    -0.11900
C939        C  0.00329102  0.20736798  0.17120478     0.26100
C940        C  0.00300891  0.19591189  0.19428842    -0.22000
C941        C  0.01267260  0.17175076  0.19608519     0.21000
C942        C  0.02086919  0.15913493  0.17509082     0.26000
C943        C  0.02069613  0.17077641  0.15208391    -0.22000
C944        C  0.01313862  0.19551212  0.15086946     0.20900
F945        F  0.01272397  0.20741340  0.12900894    -0.11900
F946        F  0.99320759  0.22990528  0.16789911    -0.14300
F947        F  0.02718432  0.13506514  0.17700756    -0.14300
F948        F  0.01320727  0.15985270  0.21793799    -0.11900
C949        C  0.18338955  0.99539348  0.15939115     0.26100
C950        C  0.18695169  0.98685239  0.18352593    -0.22000
C951        C  0.17132705  0.99570807  0.20188139     0.21000
C952        C  0.15261403  0.01241230  0.19624660     0.26000
C953        C  0.14799606  0.01978490  0.17180945    -0.22000
C954        C  0.16412504  0.01145198  0.15358589     0.20900
F955        F  0.16116061  0.01843350  0.12997598    -0.11900
F956        F  0.19876735  0.98827166  0.14127061    -0.14300
F957        F  0.13906729  0.02150507  0.21494812    -0.14300
F958        F  0.17499607  0.98936544  0.22562523    -0.11900
C959        C  0.16556774  0.08932887  0.24753573     0.26100
C960        C  0.16466569  0.10358931  0.22594438    -0.22000
C961        C  0.17613882  0.09455328  0.20494106     0.21000
C962        C  0.18981050  0.07267965  0.20603517     0.26000
C963        C  0.19323935  0.05996166  0.22855752    -0.22000
C964        C  0.17998730  0.06806111  0.24897683     0.20900
F965        F  0.18164711  0.05600232  0.27067455    -0.11900
F966        F  0.15409580  0.09732957  0.26803456    -0.14300
F967        F  0.20094883  0.06498633  0.18524125    -0.14300
F968        F  0.17584708  0.10786724  0.18389795    -0.11900
C969        C  0.25679906  0.08184842  0.19929510     0.26100
C970        C  0.26545955  0.06524723  0.18169181    -0.22000
C971        C  0.25972598  0.07000051  0.15688928     0.21000
C972        C  0.24708513  0.09154077  0.14984901     0.26000
C973        C  0.23909027  0.10849928  0.16749160    -0.22000
C974        C  0.24342092  0.10277483  0.19236933     0.20900
F975        F  0.23539427  0.11816431  0.21014437    -0.11900
F976        F  0.26045129  0.07738521  0.22344345    -0.14300
F977        F  0.24389141  0.09640507  0.12571753    -0.14300
F978        F  0.26678203  0.05393582  0.13931701    -0.11900
C979        C  0.31706180  0.98226006  0.34407170     0.26100
C980        C  0.34241243  0.97947624  0.34096050    -0.22000
C981        C  0.35217237  0.98362268  0.31753557     0.21000
C982        C  0.33734530  0.99178653  0.29818074     0.26000
C983        C  0.31214562  0.99633354  0.30165206    -0.22000
C984        C  0.30211704  0.99055340  0.32477358     0.20900
F985        F  0.27788877  0.99337032  0.32901314    -0.11900
F986        F  0.30711734  0.97920887  0.36661746    -0.14300
F987        F  0.34807891  0.99625731  0.27624261    -0.14300
F988        F  0.37666765  0.98238821  0.31404690    -0.11900
C989        C  0.33238175  0.92598886  0.26908195     0.26100
C990        C  0.35116712  0.91201013  0.25867967    -0.22000
C991        C  0.35041314  0.90741293  0.23322487     0.21000
C992        C  0.33270934  0.91872828  0.21828935     0.26000
C993        C  0.31511752  0.93428889  0.22860800    -0.22000
C994        C  0.31440685  0.93676407  0.25423507     0.20900
F995        F  0.29708144  0.95096442  0.26482206    -0.11900
F996        F  0.33263308  0.93095471  0.29335946    -0.14300
F997        F  0.33364663  0.91567158  0.19370410    -0.14300
F998        F  0.36835728  0.89397368  0.22251343    -0.11900
C999        C  0.24254944  0.94315391  0.32481017     0.26100
C1000       C  0.24697139  0.93563048  0.30060235    -0.22000
C1001       C  0.25945396  0.91301028  0.29702637     0.21000
C1002       C  0.26595593  0.89795577  0.31683125     0.26000
C1003       C  0.26055911  0.90503310  0.34077186    -0.22000
C1004       C  0.24921699  0.92799974  0.34458269     0.20900
F1005       F  0.24271260  0.93479951  0.36753917    -0.11900
F1006       F  0.23102638  0.96475244  0.32946145    -0.14300
F1007       F  0.27577312  0.87545848  0.31245846    -0.14300
F1008       F  0.26497326  0.90488443  0.27425480    -0.11900
C1009       C  0.79621400  0.23842800  0.40852333     0.26100
C1010       C  0.81056282  0.23252491  0.42898723    -0.22000
C1011       C  0.83508348  0.24102851  0.42899440     0.21000
C1012       C  0.84489468  0.25445291  0.40914108     0.26000
C1013       C  0.83058099  0.26018493  0.38859691    -0.22000
C1014       C  0.80585763  0.25234425  0.38897900     0.20900
F1015       F  0.79069329  0.25835129  0.37028335    -0.11900
F1016       F  0.77244683  0.23162443  0.40773553    -0.14300
F1017       F  0.86870029  0.26112152  0.40980730    -0.14300
F1018       F  0.84984477  0.23642594  0.44838991    -0.11900
C1019       C  0.84640873  0.30526435  0.50750934     0.26100
C1020       C  0.82125681  0.30379319  0.51297322    -0.22000
C1021       C  0.80584039  0.32236814  0.50374246     0.21000
C1022       C  0.81544299  0.34240391  0.49058254     0.26000
C1023       C  0.84072572  0.34455329  0.48636625    -0.22000
C1024       C  0.85603954  0.32544872  0.49457524     0.20900
F1025       F  0.88054206  0.32699507  0.49137100    -0.11900
F1026       F  0.86179496  0.28712873  0.51496021    -0.14300
F1027       F  0.80008096  0.36032358  0.48258038    -0.14300
F1028       F  0.78131808  0.32067734  0.50661625    -0.11900
C1029       C  0.74431762  0.32225847  0.43717818     0.26100
C1030       C  0.76274326  0.30468097  0.44100746    -0.22000
C1031       C  0.78264978  0.30404369  0.42455896     0.21000
C1032       C  0.78275021  0.31851137  0.40345215     0.26000
C1033       C  0.76439995  0.33597636  0.39959599    -0.22000
C1034       C  0.74546337  0.33813278  0.41696429     0.20900
F1035       F  0.72722748  0.35473671  0.41350145    -0.11900
F1036       F  0.72513305  0.32399560  0.45279010    -0.14300
F1037       F  0.79977878  0.31407338  0.38598593    -0.14300
F1038       F  0.80170508  0.28861099  0.42825069    -0.11900
C1039       C  0.66058018  0.25425203  0.58529117     0.26100
C1040       C  0.65492492  0.22895130  0.58337215    -0.22000
C1041       C  0.67210224  0.21321627  0.57261005     0.21000
C1042       C  0.69404636  0.22254805  0.56347508     0.26000
C1043       C  0.69879623  0.24798744  0.56366284    -0.22000
C1044       C  0.68212466  0.26376918  0.57505884     0.20900
F1045       F  0.68637980  0.28831050  0.57576806    -0.11900
F1046       F  0.64426596  0.27003020  0.59546500    -0.14300
F1047       F  0.70988512  0.20685103  0.55246125    -0.14300
F1048       F  0.66688344  0.18921445  0.56880793    -0.11900
C1049       C  0.73712589  0.13487939  0.55058768     0.26100
C1050       C  0.73710486  0.13242178  0.57617858    -0.22000
C1051       C  0.75036128  0.14974613  0.58984179     0.21000
C1052       C  0.76395802  0.16843379  0.57804866     0.26000
C1053       C  0.76523103  0.16975983  0.55224130    -0.22000
C1054       C  0.75124452  0.15277359  0.53883233     0.20900
F1055       F  0.75147875  0.15295350  0.51404676    -0.11900
F1056       F  0.72524716  0.11813003  0.53670618    -0.14300
F1057       F  0.77685119  0.18438992  0.59191795    -0.14300
F1058       F  0.75189257  0.14729873  0.61448825    -0.11900
C1059       C  0.74188093  0.08077296  0.65765451     0.26100
C1060       C  0.73322371  0.06669898  0.63802880    -0.22000
C1061       C  0.73511801  0.04083807  0.63977192     0.21000
C1062       C  0.74690486  0.02949319  0.65961821     0.26000
C1063       C  0.75648302  0.04359252  0.67875962    -0.22000
C1064       C  0.75309866  0.06932927  0.67788595     0.20900
F1065       F  0.76112320  0.08348327  0.69655073    -0.11900
F1066       F  0.74085941  0.10567841  0.65660910    -0.14300
F1067       F  0.74825065  0.00458549  0.66045749    -0.14300
F1068       F  0.72651928  0.02653547  0.62145277    -0.11900
C1069       C  0.71606251  0.08464800  0.74372609     0.26100
C1070       C  0.70050465  0.06585196  0.75180539    -0.22000
C1071       C  0.67545838  0.06762551  0.74605055     0.21000
C1072       C  0.66596999  0.08856007  0.73413709     0.26000
C1073       C  0.68148602  0.10774249  0.72676164    -0.22000
C1074       C  0.70681761  0.10487987  0.73076799     0.20900
F1075       F  0.72267807  0.12236647  0.72294391    -0.11900
F1076       F  0.74046424  0.08307932  0.74762911    -0.14300
F1077       F  0.64150154  0.09060853  0.73107317    -0.14300
F1078       F  0.66003231  0.04924568  0.75248478    -0.11900
C1079       C  0.66530498  0.14996229  0.50647296     0.26100
C1080       C  0.64446118  0.16160445  0.51606250    -0.22000
C1081       C  0.64464329  0.18742255  0.51786543     0.21000
C1082       C  0.66480129  0.20128660  0.51005822     0.26000
C1083       C  0.68561400  0.18980801  0.49992788    -0.22000
C1084       C  0.68561081  0.16381339  0.49858292     0.20900
F1085       F  0.70488783  0.15171085  0.48869252    -0.11900
F1086       F  0.66528886  0.12529036  0.50292759    -0.14300
F1087       F  0.66382007  0.22607316  0.51263754    -0.14300
F1088       F  0.62461077  0.19940638  0.52634046    -0.11900
C1089       C  0.64020104  0.00903787  0.69887139     0.26100
C1090       C  0.63918995  0.01001733  0.67308251    -0.22000
C1091       C  0.65896215  0.00035294  0.65978687     0.21000
C1092       C  0.67882142  0.98940585  0.67198664     0.26000
C1093       C  0.67895187  0.98702976  0.69766788    -0.22000
C1094       C  0.65954765  0.99730529  0.71095333     0.20900
F1095       F  0.65967451  0.99673876  0.73575980    -0.11900
F1096       F  0.62170122  0.01855854  0.71242612    -0.14300
F1097       F  0.69783094  0.98065060  0.65866742    -0.14300
F1098       F  0.65843669  0.00013466  0.63500275    -0.11900
C1099       C  0.83946281  0.97624106  0.79658882     0.26100
C1100       C  0.82295818  0.99499480  0.80349182    -0.22000
C1101       C  0.82307175  0.00259913  0.82809728     0.21000
C1102       C  0.84041845  0.99325337  0.84461428     0.26000
C1103       C  0.85811612  0.97606325  0.83707652    -0.22000
C1104       C  0.85683121  0.96701097  0.81313909     0.20900
F1105       F  0.87367574  0.95051052  0.80522687    -0.11900
F1106       F  0.83888450  0.96674468  0.77373282    -0.14300
F1107       F  0.84162932  0.00298788  0.86737969    -0.14300
F1108       F  0.80711801  0.01997719  0.83597826    -0.11900
C1109       C  0.75799379  0.90745470  0.84638688     0.26100
C1110       C  0.77238158  0.91986754  0.86359890    -0.22000
C1111       C  0.77558246  0.94535353  0.86075509     0.21000
C1112       C  0.76291926  0.95849335  0.84271395     0.26000
C1113       C  0.74700961  0.94644783  0.82646296    -0.22000
C1114       C  0.74552976  0.92054862  0.82796203     0.20900
F1115       F  0.73124905  0.90790647  0.81220836    -0.11900
F1116       F  0.75424321  0.88291299  0.84873074    -0.14300
F1117       F  0.76635231  0.98314844  0.84127981    -0.14300
F1118       F  0.78947550  0.95790112  0.87695817    -0.11900
C1119       C  0.79901208  0.88129772  0.77963265     0.26100
C1120       C  0.82464173  0.88070218  0.77818113    -0.22000
C1121       C  0.83628201  0.89840729  0.76345633     0.21000
C1122       C  0.82255874  0.91557622  0.74978019     0.26000
C1123       C  0.79674473  0.91533905  0.75026721    -0.22000
C1124       C  0.78528753  0.89792428  0.76563163     0.20900
F1125       F  0.76061582  0.89676345  0.76722276    -0.11900
F1126       F  0.78708959  0.86409564  0.79313213    -0.14300
F1127       F  0.83463146  0.93196859  0.73547431    -0.14300
F1128       F  0.86088267  0.89782163  0.76072722    -0.11900
C1129       C  0.00193664  0.81307329  0.84082731     0.26100
C1130       C  0.00943586  0.81490896  0.81617618    -0.22000
C1131       C  0.00507007  0.83703508  0.80365858     0.21000
C1132       C  0.99381000  0.85687045  0.81542628     0.26000
C1133       C  0.98751339  0.85564654  0.84048086    -0.22000
C1134       C  0.99135046  0.83324839  0.85292196     0.20900
F1135       F  0.98546641  0.83095937  0.87692386    -0.11900
F1136       F  0.00489135  0.79163483  0.85326142    -0.14300
F1137       F  0.98887228  0.87737568  0.80207206    -0.14300
F1138       F  0.01032441  0.83901119  0.77947551    -0.11900
C1139       C  0.91479511  0.78694398  0.75965257     0.26100
C1140       C  0.93390178  0.80274298  0.75312972    -0.22000
C1141       C  0.93249676  0.82758125  0.76039380     0.21000
C1142       C  0.91139944  0.83679070  0.77195959     0.26000
C1143       C  0.89195864  0.82096122  0.77776978    -0.22000
C1144       C  0.89475391  0.79567189  0.77278175     0.20900
F1145       F  0.87722121  0.77941713  0.77954684    -0.11900
F1146       F  0.91582609  0.76268340  0.75404495    -0.14300
F1147       F  0.90956496  0.86125306  0.77633602    -0.14300
F1148       F  0.95135163  0.84302996  0.75576977    -0.11900
C1149       C  0.94372803  0.76104982  0.86388198     0.26100
C1150       C  0.91809658  0.76292525  0.86360643    -0.22000
C1151       C  0.90560050  0.75507076  0.84261937     0.21000
C1152       C  0.91843833  0.74489879  0.82278526     0.26000
C1153       C  0.94390987  0.74150138  0.82391924    -0.22000
C1154       C  0.95637917  0.74990476  0.84460967     0.20900
F1155       F  0.98096986  0.74755083  0.84606982    -0.11900
F1156       F  0.95634309  0.76819292  0.88394309    -0.14300
F1157       F  0.90589672  0.73742454  0.80280939    -0.14300
F1158       F  0.88085001  0.75526417  0.84220000    -0.11900
C1159       C  0.08145927  0.66680839  0.72328927     0.26100
C1160       C  0.09985020  0.65512689  0.73683478    -0.22000
C1161       C  0.10517623  0.66419838  0.76049781     0.21000
C1162       C  0.09112707  0.68312166  0.77100621     0.26000
C1163       C  0.07171691  0.69350621  0.75797705    -0.22000
C1164       C  0.06763884  0.68586360  0.73370222     0.20900
F1165       F  0.04919142  0.69600646  0.72050502    -0.11900
F1166       F  0.07546537  0.65836800  0.70079322    -0.14300
F1167       F  0.09538560  0.69005551  0.79439611    -0.14300
F1168       F  0.12246553  0.65297717  0.77438491    -0.11900
C1169       C  0.04928013  0.74856743  0.66219054     0.26100
C1170       C  0.05583423  0.75163469  0.68689677    -0.22000
C1171       C  0.07786450  0.74070707  0.69499323     0.21000
C1172       C  0.09368802  0.72913474  0.67857956     0.26000
C1173       C  0.08864125  0.72922705  0.65350602    -0.22000
C1174       C  0.06564434  0.73764915  0.64565622     0.20900
F1175       F  0.06024454  0.73781641  0.62145209    -0.11900
F1176       F  0.02765594  0.75726840  0.65370531    -0.14300
F1177       F  0.11567401  0.72097942  0.68671619    -0.14300
F1178       F  0.08447345  0.74141741  0.71886833    -0.11900
C1179       C  0.01646856  0.63640772  0.69960607     0.26100
C1180       C  0.01578832  0.63870957  0.67403565    -0.22000
C1181       C  0.00633399  0.66040666  0.66377425     0.21000
C1182       C  0.99633569  0.67877914  0.67877565     0.26000
C1183       C  0.99528610  0.67567830  0.70447976    -0.22000
C1184       C  0.00618538  0.65439451  0.71461263     0.20900
F1185       F  0.00694083  0.65070931  0.73915282    -0.11900
F1186       F  0.02519382  0.61543903  0.71001546    -0.14300
F1187       F  0.98721063  0.69933522  0.66795638    -0.14300
F1188       F  0.00483342  0.66288300  0.63912267    -0.11900
C1189       C  0.82708502  0.79861994  0.00006276     0.26100
C1190       C  0.80364620  0.80866097  0.00382558    -0.22000
C1191       C  0.80066275  0.83427335  0.00058477     0.21000
C1192       C  0.82041323  0.84925041  0.99397921     0.26000
C1193       C  0.84381495  0.83921661  0.99074361    -0.22000
C1194       C  0.84681174  0.81366851  0.99348877     0.20900
F1195       F  0.86946022  0.80359964  0.99209365    -0.11900
F1196       F  0.83131493  0.77437682  0.00387391    -0.14300
F1197       F  0.81725332  0.87401396  0.99344877    -0.14300
F1198       F  0.77897236  0.84521840  0.00552492    -0.11900
C1199       C  0.82801762  0.74243426  0.95886169     0.26100
C1200       C  0.80656608  0.74333370  0.94488033    -0.22000
C1201       C  0.80786801  0.75394182  0.92118230     0.21000
C1202       C  0.83025463  0.76222019  0.91153792     0.26000
C1203       C  0.85156528  0.76120924  0.92574090    -0.22000
C1204       C  0.84973886  0.75231454  0.94993247     0.20900
F1205       F  0.86976463  0.75139706  0.96449524    -0.11900
F1206       F  0.82820903  0.73180705  0.98135452    -0.14300
F1207       F  0.83133948  0.76965501  0.88785007    -0.14300
F1208       F  0.78768087  0.75562552  0.90694357    -0.11900
C1209       C  0.74024542  0.81802393  0.91918225     0.26100
C1210       C  0.73239416  0.81786128  0.94386087    -0.22000
C1211       C  0.74112533  0.83656502  0.95923570     0.21000
C1212       C  0.75698827  0.85459527  0.95046576     0.26000
C1213       C  0.76319810  0.85609525  0.92552526    -0.22000
C1214       C  0.75504276  0.83724247  0.91000158     0.20900
F1215       F  0.75986198  0.83832034  0.88568939    -0.11900
F1216       F  0.73266150  0.80030091  0.90360220    -0.14300
F1217       F  0.76452075  0.87229677  0.96612941    -0.14300
F1218       F  0.73387279  0.83802237  0.98290372    -0.11900
C1219       C  0.64953054  0.73780330  0.08678395     0.26100
C1220       C  0.66578217  0.73102622  0.10549246    -0.22000
C1221       C  0.69079618  0.73627120  0.10215975     0.21000
C1222       C  0.69895765  0.75011755  0.08209598     0.26000
C1223       C  0.68254022  0.75817277  0.06403174    -0.22000
C1224       C  0.65786721  0.75085932  0.06614299     0.20900
F1225       F  0.64156260  0.75687131  0.04843639    -0.11900
F1226       F  0.62532868  0.73322498  0.08910837    -0.14300
F1227       F  0.72310887  0.75516980  0.08017494    -0.14300
F1228       F  0.70732409  0.72901452  0.11920656    -0.11900
C1229       C  0.74594921  0.65894300  0.08825967     0.26100
C1230       C  0.72358054  0.64634428  0.09039910    -0.22000
C1231       C  0.70302889  0.65601396  0.07866854     0.21000
C1232       C  0.70514908  0.67676528  0.06356186     0.26000
C1233       C  0.72815112  0.68794764  0.05929543    -0.22000
C1234       C  0.74828220  0.67936275  0.07276315     0.20900
F1235       F  0.77047083  0.69009997  0.07038714    -0.11900
F1236       F  0.76605057  0.65045500  0.10011950    -0.14300
F1237       F  0.68471159  0.68494805  0.05212039    -0.14300
F1238       F  0.68124475  0.64438335  0.08027709    -0.11900
C1239       C  0.64892348  0.66121726  0.00112438     0.26100
C1240       C  0.66505580  0.64379550  0.01115596    -0.22000
C1241       C  0.69036037  0.64751169  0.00792205     0.21000
C1242       C  0.69920413  0.66726557  0.99387839     0.26000
C1243       C  0.68299613  0.68416585  0.98301076    -0.22000
C1244       C  0.65778243  0.68117307  0.98737557     0.20900
F1245       F  0.64156669  0.69759732  0.97802853    -0.11900
F1246       F  0.62447170  0.65824343  0.00341519    -0.14300
F1247       F  0.72367184  0.67036606  0.99176946    -0.14300
F1248       F  0.70658131  0.63145254  0.01791861    -0.11900
C1249       C  0.31546775  0.83716273  0.49748424     0.26100
C1250       C  0.34005665  0.84005628  0.49042418    -0.22000
C1251       C  0.35651908  0.82086250  0.49571340     0.21000
C1252       C  0.34867207  0.79978334  0.50849816     0.26000
C1253       C  0.32447796  0.79789317  0.51713505    -0.22000
C1254       C  0.30796371  0.81679148  0.51125416     0.20900
F1255       F  0.28423985  0.81523400  0.51821054    -0.11900
F1256       F  0.29896821  0.85516474  0.49249113    -0.14300
F1257       F  0.36489795  0.78143183  0.51306395    -0.14300
F1258       F  0.38050191  0.82321645  0.49004513    -0.11900
C1259       C  0.28518855  0.81415732  0.43453264     0.26100
C1260       C  0.26664908  0.81354846  0.45266258    -0.22000
C1261       C  0.24998524  0.83311344  0.45342951     0.21000
C1262       C  0.25051073  0.85154843  0.43551405     0.26000
C1263       C  0.26689832  0.85035661  0.41553661    -0.22000
C1264       C  0.28492754  0.83199398  0.41582364     0.20900
F1265       F  0.30100353  0.82993780  0.39707243    -0.11900
F1266       F  0.30288654  0.79669257  0.43399355    -0.14300
F1267       F  0.23351353  0.86972985  0.43663147    -0.14300
F1268       F  0.23271994  0.83419045  0.47120257    -0.11900
C1269       C  0.20903839  0.73850494  0.59931427     0.26100
C1270       C  0.20509444  0.74949539  0.57616991    -0.22000
C1271       C  0.18127232  0.74942173  0.56678861     0.21000
C1272       C  0.16212487  0.73830272  0.57967621     0.26000
C1273       C  0.16560955  0.72899138  0.60348635    -0.22000
C1274       C  0.18946494  0.72876732  0.61291859     0.20900
F1275       F  0.19341421  0.72121453  0.63626407    -0.11900
F1276       F  0.23163966  0.73834784  0.60940799    -0.14300
F1277       F  0.13923126  0.73993744  0.57039248    -0.14300
F1278       F  0.17625258  0.76093757  0.54538284    -0.11900
C1279       C  0.28345094  0.74685733  0.41290073     0.26100
C1280       C  0.29961447  0.73452306  0.42874342    -0.22000
C1281       C  0.32495279  0.73716900  0.42434790     0.21000
C1282       C  0.33378849  0.75127112  0.40463325     0.26000
C1283       C  0.31765555  0.76313215  0.38850820    -0.22000
C1284       C  0.29232410  0.76092036  0.39312573     0.20900
F1285       F  0.27601551  0.77223686  0.37815252    -0.11900
F1286       F  0.25904403  0.74606548  0.41696917    -0.14300
F1287       F  0.35819234  0.75217131  0.40060083    -0.14300
F1288       F  0.34141443  0.72581859  0.43911396    -0.11900
C1289       C  0.15836223  0.71529845  0.51277095     0.26100
C1290       C  0.17962820  0.70147226  0.50799587    -0.22000
C1291       C  0.17851641  0.67573946  0.51233714     0.21000
C1292       C  0.15657210  0.66425001  0.51952867     0.26000
C1293       C  0.13529377  0.67814279  0.52350908    -0.22000
C1294       C  0.13694078  0.70394661  0.52117170     0.20900
F1295       F  0.11698508  0.71820107  0.52533933    -0.11900
F1296       F  0.15773218  0.73981744  0.50828036    -0.14300
F1297       F  0.15574074  0.63935154  0.52074324    -0.14300
F1298       F  0.19846588  0.66134690  0.50884716    -0.11900
C1299       C  0.27028098  0.64250452  0.54675091     0.26100
C1300       C  0.26691261  0.66687824  0.55386305    -0.22000
C1301       C  0.24874984  0.67219965  0.57143730     0.21000
C1302       C  0.23322348  0.65369406  0.58036036     0.26000
C1303       C  0.23559842  0.62935854  0.57209867    -0.22000
C1304       C  0.25532212  0.62391405  0.55606605     0.20900
F1305       F  0.26065268  0.60056521  0.54931441    -0.11900
F1306       F  0.28782044  0.63673089  0.53019051    -0.14300
F1307       F  0.21519554  0.65989104  0.59622570    -0.14300
F1308       F  0.24463918  0.69570598  0.57852200    -0.11900
C1309       C  0.80089051  0.43239668  0.24798006     0.26100
C1310       C  0.80538254  0.45621566  0.25671367    -0.22000
C1311       C  0.82638582  0.45993190  0.27135177     0.21000
C1312       C  0.84301168  0.44080108  0.27571862     0.26000
C1313       C  0.83884148  0.41737299  0.26621339    -0.22000
C1314       C  0.81727688  0.41322023  0.25291332     0.20900
F1315       F  0.81322113  0.39088865  0.24275061    -0.11900
F1316       F  0.78120634  0.42774832  0.23375592    -0.14300
F1317       F  0.86415839  0.44569248  0.28757960    -0.14300
F1318       F  0.83143937  0.48228739  0.28095249    -0.11900
C1319       C  0.81622935  0.51414290  0.32908421     0.26100
C1320       C  0.79090948  0.51864983  0.33182071    -0.22000
C1321       C  0.77843762  0.50543076  0.35017330     0.21000
C1322       C  0.79084307  0.48912803  0.36569057     0.26000
C1323       C  0.81641716  0.48657428  0.36463100    -0.22000
C1324       C  0.82883969  0.49848309  0.34545283     0.20900
F1325       F  0.85350618  0.49694913  0.34402955    -0.11900
F1326       F  0.82916398  0.52597517  0.31147144    -0.14300
F1327       F  0.77821800  0.47830806  0.38419850    -0.14300
F1328       F  0.75425034  0.50905610  0.35408765    -0.11900
C1329       C  0.74792521  0.59730503  0.19426538     0.26100
C1330       C  0.75675224  0.57333991  0.19878279    -0.22000
C1331       C  0.75458193  0.55565737  0.18029777     0.21000
C1332       C  0.74372834  0.56174587  0.15792362     0.26000
C1333       C  0.73488931  0.58574914  0.15336932    -0.22000
C1334       C  0.73731489  0.60349223  0.17178240     0.20900
F1335       F  0.73021892  0.62709523  0.16780167    -0.11900
F1336       F  0.74925282  0.61473938  0.21187382    -0.14300
F1337       F  0.74130204  0.54389581  0.14084615    -0.14300
F1338       F  0.76135302  0.53197550  0.18446714    -0.11900
C1339       C  0.75846703  0.40090578  0.30909021     0.26100
C1340       C  0.76121505  0.39925214  0.33455338    -0.22000
C1341       C  0.75549845  0.41986658  0.34883415     0.21000
C1342       C  0.74550581  0.44108944  0.33802975     0.26000
C1343       C  0.74126639  0.44226275  0.31258560    -0.22000
C1344       C  0.74870343  0.42208654  0.29821451     0.20900
F1345       F  0.74628585  0.42257719  0.27354307    -0.11900
F1346       F  0.76376335  0.38122021  0.29484628    -0.14300
F1347       F  0.73887524  0.45996917  0.35272607    -0.14300
F1348       F  0.75746425  0.41863071  0.37353855    -0.11900
C1349       C  0.64003167  0.50020895  0.18442754     0.26100
C1350       C  0.64090904  0.51627432  0.16393331    -0.22000
C1351       C  0.66044739  0.53294132  0.16253012     0.21000
C1352       C  0.67828039  0.53346268  0.18092923     0.26000
C1353       C  0.67826577  0.51608402  0.20006674    -0.22000
C1354       C  0.65889679  0.49947855  0.20164652     0.20900
F1355       F  0.65788145  0.48286670  0.22021779    -0.11900
F1356       F  0.62120734  0.48427536  0.18728051    -0.14300
F1357       F  0.69640536  0.55023280  0.17933167    -0.14300
F1358       F  0.66372980  0.54736766  0.14264277    -0.11900
C1359       C  0.66321506  0.58689252  0.26617372     0.26100
C1360       C  0.66763431  0.56178949  0.27144428    -0.22000
C1361       C  0.65404033  0.54416800  0.25874923     0.21000
C1362       C  0.63665361  0.55136821  0.24132051     0.26000
C1363       C  0.63131025  0.57646027  0.23688003    -0.22000
C1364       C  0.64514066  0.59413183  0.24935744     0.20900
F1365       F  0.64063443  0.61845007  0.24605144    -0.11900
F1366       F  0.67648281  0.60456194  0.27740541    -0.14300
F1367       F  0.62439859  0.53361751  0.22913636    -0.14300
F1368       F  0.65841781  0.51983807  0.26226245    -0.11900
C1369       C  0.17212749  0.19167972  0.00524920     0.26100
C1370       C  0.19704033  0.19256544  0.99860676    -0.22000
C1371       C  0.21190319  0.17246844  0.00489410     0.21000
C1372       C  0.20220305  0.15195457  0.01695448     0.26000
C1373       C  0.17691185  0.14986231  0.02137183    -0.22000
C1374       C  0.16201948  0.17030044  0.01591751     0.20900
F1375       F  0.13758957  0.16917429  0.01970790    -0.11900
F1376       F  0.15744210  0.21131480  0.00078322    -0.14300
F1377       F  0.21750776  0.13329014  0.02323939    -0.14300
F1378       F  0.23616680  0.17293292  0.00000130    -0.11900
C1379       C  0.16763654  0.26168117  0.04464272     0.26100
C1380       C  0.18772874  0.26704317  0.05950353    -0.22000
C1381       C  0.18687528  0.25987511  0.08433780     0.21000
C1382       C  0.16559800  0.24945813  0.09442859     0.26000
C1383       C  0.14521441  0.24481206  0.07959498    -0.22000
C1384       C  0.14708541  0.24999860  0.05433643     0.20900
F1385       F  0.12832359  0.24474144  0.03907712    -0.11900
F1386       F  0.16820594  0.26692275  0.02036480    -0.14300
F1387       F  0.16449616  0.24520068  0.11885752    -0.14300
F1388       F  0.20651381  0.26342719  0.09894682    -0.11900
C1389       C  0.25722645  0.21471261  0.09164878     0.26100
C1390       C  0.26049859  0.20148115  0.06995803    -0.22000
C1391       C  0.25179667  0.17706404  0.06911713     0.21000
C1392       C  0.24138558  0.16576869  0.08986602     0.26000
C1393       C  0.23892065  0.17879989  0.11187766    -0.22000
C1394       C  0.24606507  0.20380271  0.11202538     0.20900
F1395       F  0.24240738  0.21784906  0.13215394    -0.11900
F1396       F  0.26371880  0.23873839  0.09279896    -0.14300
F1397       F  0.23452494  0.14187453  0.08857461    -0.14300
F1398       F  0.25364190  0.16398495  0.04815773    -0.11900
C1399       C  0.31756378  0.32243602  0.97758423     0.26100
C1400       C  0.31126679  0.32776762  0.00201847    -0.22000
C1401       C  0.32256045  0.34769894  0.01345535     0.21000
C1402       C  0.34120320  0.36073965  0.00126681     0.26000
C1403       C  0.34904814  0.35385118  0.97756366    -0.22000
C1404       C  0.33635101  0.33516015  0.96558012     0.20900
F1405       F  0.34340961  0.32793975  0.94293589    -0.11900
F1406       F  0.30615995  0.30391608  0.96569021    -0.14300
F1407       F  0.35327203  0.37860418  0.01349167    -0.14300
F1408       F  0.31674216  0.35349082  0.03684077    -0.11900
C1409       C  0.36180728  0.27391073  0.93777876     0.26100
C1410       C  0.35845605  0.27244321  0.91234795    -0.22000
C1411       C  0.33675790  0.26193292  0.90370940     0.21000
C1412       C  0.31950700  0.25194449  0.92002644     0.26000
C1413       C  0.32365576  0.25188834  0.94556461    -0.22000
C1414       C  0.34496519  0.26355020  0.95410664     0.20900
F1415       F  0.34977909  0.26497101  0.97838123    -0.11900
F1416       F  0.38288924  0.28323150  0.94677251    -0.14300
F1417       F  0.29909127  0.24162429  0.91062646    -0.14300
F1418       F  0.33335248  0.25918825  0.87930845    -0.11900
C1419       C  0.27368521  0.35658704  0.92523633     0.26100
C1420       C  0.27322163  0.35226703  0.89999976    -0.22000
C1421       C  0.26374422  0.32970302  0.89183420     0.21000
C1422       C  0.25339733  0.31269836  0.90836706     0.26000
C1423       C  0.25153189  0.31824855  0.93346450    -0.22000
C1424       C  0.26265081  0.34018829  0.94165577     0.20900
F1425       F  0.26266686  0.34620625  0.96570217    -0.11900
F1426       F  0.28214579  0.37835085  0.93376018    -0.14300
F1427       F  0.24413449  0.29141440  0.89957348    -0.14300
F1428       F  0.26238410  0.32521910  0.86749556    -0.11900
C1429       C  0.26505455  0.44030581  0.80598440     0.26100
C1430       C  0.26367512  0.46503784  0.81331947    -0.22000
C1431       C  0.27143746  0.47098494  0.83712076     0.21000
C1432       C  0.27883124  0.45246733  0.85351497     0.26000
C1433       C  0.27924283  0.42763982  0.84639965    -0.22000
C1434       C  0.27327534  0.42197212  0.82210847     0.20900
F1435       F  0.27265810  0.39815622  0.81484802    -0.11900
F1436       F  0.25787832  0.43368701  0.78329696    -0.14300
F1437       F  0.28338472  0.45850475  0.87710737    -0.14300
F1438       F  0.27054597  0.49458794  0.84503186    -0.11900
C1439       C  0.34199542  0.52150811  0.80975648     0.26100
C1440       C  0.34202895  0.52157650  0.78390362    -0.22000
C1441       C  0.35803298  0.50512573  0.77199709     0.21000
C1442       C  0.37361986  0.48962021  0.78534712     0.26000
C1443       C  0.37453812  0.49051070  0.81107195    -0.22000
C1444       C  0.35800768  0.50620397  0.82310038     0.20900
F1445       F  0.35803385  0.50769814  0.84778478    -0.11900
F1446       F  0.32682531  0.53666218  0.82230167    -0.14300
F1447       F  0.38865525  0.47418303  0.77293873    -0.14300
F1448       F  0.35882631  0.50395228  0.74724171    -0.11900
C1449       C  0.20451598  0.60565479  0.74589020     0.26100
C1450       C  0.20889125  0.58195356  0.75567408    -0.22000
C1451       C  0.18999158  0.56462843  0.75449669     0.21000
C1452       C  0.16735565  0.57081872  0.74429615     0.26000
C1453       C  0.16235053  0.59492834  0.73592191    -0.22000
C1454       C  0.18141088  0.61220686  0.73654823     0.20900
F1455       F  0.17752989  0.63566669  0.72891625    -0.11900
F1456       F  0.22262582  0.62259395  0.74552773    -0.14300
F1457       F  0.15016051  0.55300931  0.74268316    -0.14300
F1458       F  0.19380195  0.54111701  0.76202948    -0.11900
C1459       C  0.17491691  0.50533532  0.69305885     0.26100
C1460       C  0.19236518  0.52414734  0.69319510    -0.22000
C1461       C  0.18885483  0.54441247  0.67711277     0.21000
C1462       C  0.17119165  0.54358266  0.65862686     0.26000
C1463       C  0.15592061  0.52310638  0.65659903    -0.22000
C1464       C  0.15659345  0.50513559  0.67528083     0.20900
F1465       F  0.14106561  0.48576136  0.67462503    -0.11900
F1466       F  0.17625730  0.48641215  0.70925683    -0.14300
F1467       F  0.17092288  0.56151576  0.64132126    -0.14300
F1468       F  0.20363337  0.56435056  0.67793374    -0.11900
C1469       C  0.29438219  0.41696516  0.74496263     0.26100
C1470       C  0.30841365  0.43796822  0.73971626    -0.22000
C1471       C  0.33387427  0.43650550  0.74417012     0.21000
C1472       C  0.34474542  0.41481605  0.75337772     0.26000
C1473       C  0.33052357  0.39402846  0.75874149    -0.22000
C1474       C  0.30510729  0.39573583  0.75493202     0.20900
F1475       F  0.29065804  0.37600506  0.75945825    -0.11900
F1476       F  0.27018736  0.41654556  0.73983894    -0.14300
F1477       F  0.36939570  0.41362764  0.75534140    -0.14300
F1478       F  0.34859281  0.45575136  0.73880402    -0.11900
C1479       C  0.26618974  0.58128287  0.65767454     0.26100
C1480       C  0.26866474  0.55599923  0.66309518    -0.22000
C1481       C  0.25324117  0.53944141  0.65094538     0.21000
C1482       C  0.23576917  0.54799260  0.63406265     0.54800
C1483       C  0.23327887  0.57337918  0.62873833    -0.22000
C1484       C  0.24882762  0.58982993  0.64086381     0.20900
F1485       F  0.24761120  0.61434657  0.63629751    -0.11900
F1486       F  0.28035641  0.59803056  0.66919256    -0.14300
F1487       F  0.22064652  0.53138942  0.62360904    -0.14300
F1488       F  0.25391175  0.51511396  0.65652664    -0.11900
C1489       C  0.42744004  0.25684869  0.80754994     0.26100
C1490       C  0.45259759  0.25178338  0.81018259    -0.22000
C1491       C  0.46411892  0.25883309  0.83191848     0.21000
C1492       C  0.45065044  0.26954957  0.85092763     0.26000
C1493       C  0.42517110  0.27280202  0.84901468    -0.22000
C1494       C  0.41390315  0.26723817  0.82673141     0.20900
F1495       F  0.38936902  0.26962122  0.82435545    -0.11900
F1496       F  0.41565610  0.25064275  0.78671947    -0.14300
F1497       F  0.46213092  0.27479781  0.87222899    -0.14300
F1498       F  0.48847357  0.25542890  0.83477152    -0.11900
C1499       C  0.51191504  0.34775046  0.78576813     0.26100
C1500       C  0.51626293  0.32506184  0.79735365    -0.22000
C1501       C  0.50931196  0.32226219  0.82205785     0.21000
C1502       C  0.49837651  0.34162006  0.83485834     0.26000
C1503       C  0.49423967  0.36436591  0.82335314    -0.22000
C1504       C  0.50110379  0.36720301  0.79865393     0.20900
F1505       F  0.49779841  0.38913638  0.78717383    -0.11900
F1506       F  0.51715656  0.35078562  0.76169465    -0.14300
F1507       F  0.49321530  0.33856457  0.85895852    -0.14300
F1508       F  0.51320783  0.30062514  0.83389185    -0.11900
C1509       C  0.60186757  0.16517593  0.73564293     0.26100
C1510       C  0.62149005  0.17605571  0.72308678    -0.22000
C1511       C  0.62173756  0.20183663  0.72079895     0.21000
C1512       C  0.60391738  0.21645845  0.73201233     0.26000
C1513       C  0.58454211  0.20582053  0.74542029    -0.22000
C1514       C  0.58348467  0.17980737  0.74644548     0.20900
F1515       F  0.56496350  0.16839698  0.75837002    -0.11900
F1516       F  0.60138976  0.14044619  0.73896672    -0.14300
F1517       F  0.60588975  0.24121910  0.72961739    -0.14300
F1518       F  0.64047685  0.21307958  0.70899396    -0.11900
C1519       C  0.51136509  0.15758777  0.70856014     0.26100
C1520       C  0.50243121  0.17898941  0.69687086    -0.22000
C1521       C  0.50518325  0.18090815  0.67120792     0.21000
C1522       C  0.51527647  0.16156830  0.65769197     0.26000
C1523       C  0.52255121  0.13972987  0.66933267    -0.22000
C1524       C  0.52139422  0.13834742  0.69493208     0.20900
F1525       F  0.52816064  0.11732830  0.70659417    -0.11900
F1526       F  0.51007736  0.15489319  0.73320471    -0.14300
F1527       F  0.51574270  0.16327119  0.63293288    -0.14300
F1528       F  0.49756010  0.20124008  0.65890888    -0.11900
C1529       C  0.54374190  0.24644059  0.64623284     0.26100
C1530       C  0.55551137  0.25954505  0.66503933    -0.22000
C1531       C  0.58130300  0.25856232  0.66582089     0.21000
C1532       C  0.59469041  0.24481334  0.64853560     0.26000
C1533       C  0.58271229  0.23133881  0.63022291    -0.22000
C1534       C  0.55706688  0.23236886  0.62946551     0.20900
F1535       F  0.54476965  0.22018365  0.61176738    -0.11900
F1536       F  0.51908266  0.24672754  0.64412769    -0.14300
F1537       F  0.61941227  0.24570666  0.64900684    -0.14300
F1538       F  0.59370316  0.27104127  0.68322724    -0.11900
C1539       C  0.43547091  0.33335865  0.73941371     0.26100
C1540       C  0.43650384  0.30777951  0.73545638    -0.22000
C1541       C  0.41677959  0.29331951  0.74322390     0.21000
C1542       C  0.39651591  0.30411513  0.75456555     0.26000
C1543       C  0.39474806  0.32983229  0.75723926    -0.22000
C1544       C  0.41462246  0.34434057  0.74975946     0.20900
F1545       F  0.41321927  0.36921733  0.75087534    -0.11900
F1546       F  0.45442674  0.34780755  0.73250968    -0.14300
F1547       F  0.37778533  0.28949772  0.76177379    -0.14300
F1548       F  0.41729472  0.26856976  0.74026882    -0.11900
C1549       C  0.42242546  0.82843743  0.23990906     0.26100
C1550       C  0.44824771  0.82849319  0.23982211    -0.22000
C1551       C  0.46008243  0.84735845  0.25288943     0.21000
C1552       C  0.44670433  0.86521425  0.26559060     0.26000
C1553       C  0.42103336  0.86519504  0.26551906    -0.22000
C1554       C  0.40905618  0.84641836  0.25270415     0.20900
F1555       F  0.38433574  0.84599287  0.25167013    -0.11900
F1556       F  0.40992387  0.81096104  0.22759136    -0.14300
F1557       F  0.45899113  0.88294587  0.27781223    -0.14300
F1558       F  0.48478560  0.84845679  0.25391724    -0.11900
C1559       C  0.49267073  0.81571216  0.32328388     0.26100
C1560       C  0.49649864  0.78995516  0.32389130    -0.22000
C1561       C  0.48808772  0.77699995  0.34466376     0.21000
C1562       C  0.47655796  0.78924594  0.36400391     0.26000
C1563       C  0.47387826  0.81508709  0.36395819    -0.22000
C1564       C  0.48162451  0.82805173  0.34303123     0.20900
F1565       F  0.47914497  0.85284643  0.34183899    -0.11900
F1566       F  0.49929079  0.82914101  0.30341224    -0.14300
F1567       F  0.46800538  0.77556623  0.38296834    -0.14300
F1568       F  0.49054860  0.75219746  0.34629956    -0.11900
C1569       C  0.58568145  0.73671191  0.15680582     0.26100
C1570       C  0.60531339  0.72809068  0.17104406    -0.22000
C1571       C  0.60348279  0.73014387  0.19671511     0.21000
C1572       C  0.58347293  0.74182133  0.20772588     0.26000
C1573       C  0.56419653  0.75108451  0.19352552    -0.22000
C1574       C  0.56521059  0.74773910  0.16795195     0.20900
F1575       F  0.54655264  0.75572079  0.15366551    -0.11900
F1576       F  0.58690206  0.73583148  0.13205482    -0.14300
F1577       F  0.58262072  0.74337493  0.23246315    -0.14300
F1578       F  0.62178752  0.72168738  0.21120375    -0.11900
C1579       C  0.39508978  0.75430818  0.33215240     0.26100
C1580       C  0.37694257  0.76962921  0.32206221    -0.22000
C1581       C  0.37825685  0.77511105  0.29695088     0.21000
C1582       C  0.39611937  0.76441557  0.28197468     0.26000
C1583       C  0.41358632  0.74785944  0.29160805    -0.22000
C1584       C  0.41330959  0.74374052  0.31720239     0.20900
F1585       F  0.43037664  0.72907894  0.32782952    -0.11900
F1586       F  0.39426749  0.74822778  0.35622107    -0.14300
F1587       F  0.39628264  0.77060843  0.25792987    -0.14300
F1588       F  0.36124416  0.79004460  0.28659060    -0.11900
C1589       C  0.51329399  0.69007437  0.17275125     0.26100
C1590       C  0.48859373  0.69806901  0.17250887    -0.22000
C1591       C  0.47490893  0.69414189  0.15126841     0.21000
C1592       C  0.48570369  0.68276355  0.13083350     0.26000
C1593       C  0.51065013  0.67569639  0.13091580    -0.22000
C1594       C  0.52411277  0.67916587  0.15224765     0.20900
F1595       F  0.54815068  0.67317109  0.15289292    -0.11900
F1596       F  0.52758722  0.69389993  0.19259035    -0.14300
F1597       F  0.47179859  0.67892137  0.11070674    -0.14300
F1598       F  0.45112743  0.70105410  0.15030867    -0.11900
C1599       C  0.52775460  0.65368495  0.24189429     0.26100
C1600       C  0.54102726  0.67388128  0.25040835    -0.22000
C1601       C  0.56658893  0.67382430  0.24729846     0.21000
C1602       C  0.57866757  0.65353138  0.23696483     0.26000
C1603       C  0.56539526  0.63299637  0.22899768    -0.22000
C1604       C  0.53967410  0.63381834  0.23085227     0.20900
F1605       F  0.52587219  0.61536170  0.22170909    -0.11900
F1606       F  0.50301587  0.65378854  0.24290392    -0.14300
F1607       F  0.60335313  0.65380587  0.23537966    -0.14300
F1608       F  0.57991887  0.69353504  0.25431350    -0.11900
C1609       C  0.07492569  0.08311970  0.00488567     0.26100
C1610       C  0.07591742  0.05756427  0.00055387    -0.22000
C1611       C  0.09661891  0.04452446  0.00838453     0.21000
C1612       C  0.11602572  0.05666252  0.01965304     0.26000
C1613       C  0.11602562  0.08248009  0.02223819    -0.22000
C1614       C  0.09499374  0.09555180  0.01509035     0.20900
F1615       F  0.09435647  0.12042624  0.01670360    -0.11900
F1616       F  0.05465140  0.09611481  0.99875267    -0.14300
F1617       F  0.13560112  0.04320723  0.02704245    -0.14300
F1618       F  0.09775612  0.01973569  0.00590059    -0.11900
C1619       C  0.01737060  0.08442771  0.10097283     0.26100
C1620       C  0.02255047  0.10581317  0.08744190    -0.22000
C1621       C  0.01921426  0.10531460  0.06191659     0.21000
C1622       C  0.00903035  0.08476742  0.05047893     0.26000
C1623       C  0.00261942  0.06382815  0.06414796    -0.22000
C1624       C  0.00771982  0.06359000  0.08940843     0.20900
F1625       F  0.00242672  0.04341939  0.10306777    -0.11900
F1626       F  0.01960788  0.08446429  0.12567709    -0.14300
F1627       F  0.00573724  0.08526385  0.02590993    -0.14300
F1628       F  0.02408615  0.12565042  0.04830039    -0.11900
C1629       C  0.06032940  0.01598793  0.11312259     0.26100
C1630       C  0.08539125  0.02182261  0.11505157    -0.22000
C1631       C  0.10102389  0.01365490  0.09624010     0.21000
C1632       C  0.09187094  0.99993007  0.07648604     0.26000
C1633       C  0.06711567  0.99304541  0.07553879    -0.22000
C1634       C  0.05163080  0.00094547  0.09437840     0.20900
F1635       F  0.02752706  0.99540187  0.09386552    -0.11900
F1636       F  0.04391976  0.02515506  0.12932037    -0.14300
F1637       F  0.10720680  0.99344507  0.05810161    -0.14300
F1638       F  0.12517390  0.01875837  0.09688761    -0.11900
C1639       C  0.93486198  0.89679275  0.99659468     0.26100
C1640       C  0.91023831  0.90317673  0.99360321    -0.22000
C1641       C  0.90300058  0.92732387  0.99930350     0.21000
C1642       C  0.91961033  0.94415227  0.00930591     0.26000
C1643       C  0.94397672  0.93717439  0.01408196    -0.22000
C1644       C  0.95143303  0.91332137  0.00684933     0.20900
F1645       F  0.97477131  0.90553341  0.01001630    -0.11900
F1646       F  0.94229728  0.87340333  0.99211692    -0.14300
F1647       F  0.91150860  0.96701589  0.01501899    -0.14300
F1648       F  0.87916456  0.93385640  0.99742409    -0.11900
C1649       C  0.96528581  0.98862520  0.91537651     0.26100
C1650       C  0.95504461  0.99998490  0.93618285    -0.22000
C1651       C  0.92938208  0.99891457  0.93896412     0.21000
C1652       C  0.91454080  0.98841367  0.92075012     0.26000
C1653       C  0.92487726  0.97813760  0.89955816    -0.22000
C1654       C  0.95047376  0.97783881  0.89754617     0.20900
F1655       F  0.96114081  0.96881580  0.87703363    -0.11900
F1656       F  0.98981423  0.98782686  0.91207645    -0.14300
F1657       F  0.88993408  0.99026981  0.92281236    -0.14300
F1658       F  0.91845105  0.00875794  0.95894193    -0.11900
C1659       C  0.01472355  0.90004583  0.91766966     0.26100
C1660       C  0.98986906  0.90482821  0.91223928    -0.22000
C1661       C  0.97670885  0.92014547  0.92809148     0.21000
C1662       C  0.98844371  0.93177673  0.94766066     0.26000
C1663       C  0.01374511  0.92889971  0.95153026    -0.22000
C1664       C  0.02663681  0.91228571  0.93687876     0.20900
F1665       F  0.05102366  0.90934562  0.93991611    -0.11900
F1666       F  0.02817757  0.88572625  0.90246810    -0.14300
F1667       F  0.97545588  0.94770477  0.96164528    -0.14300
F1668       F  0.95310740  0.92587342  0.92323339    -0.11900
C1669       C  0.99493487  0.57762978  0.56773542     0.26100
C1670       C  0.99264608  0.55183270  0.56805127    -0.22000
C1671       C  0.00281931  0.53859936  0.58761279     0.21000
C1672       C  0.01461629  0.55084425  0.60663724     0.26000
C1673       C  0.01533878  0.57673252  0.60731127    -0.22000
C1674       C  0.00587223  0.58999246  0.58733462     0.20900
F1675       F  0.00530549  0.61492809  0.58777333    -0.11900
F1676       F  0.98567994  0.59091120  0.54882486    -0.14300
F1677       F  0.02354926  0.53748345  0.62566366    -0.14300
F1678       F  0.00153476  0.51370563  0.58820491    -0.11900
C1679       C  0.08376755  0.50441673  0.59169952     0.26100
C1680       C  0.10637952  0.51037371  0.58126098    -0.22000
C1681       C  0.10997585  0.50602519  0.55612208     0.21000
C1682       C  0.09117983  0.49630875  0.54167155     0.26000
C1683       C  0.06861128  0.49015569  0.55225397    -0.22000
C1684       C  0.06523793  0.49428249  0.57743876     0.20900
F1685       F  0.04385243  0.48819054  0.58834480    -0.11900
F1686       F  0.08021577  0.50668686  0.61614702    -0.14300
F1687       F  0.09478292  0.49369189  0.51727257    -0.14300
F1688       F  0.13204202  0.51052593  0.54577484    -0.11900
C1689       C  0.00317075  0.43039939  0.41800407     0.26100
C1690       C  0.00183450  0.45633049  0.41961165    -0.22000
C1691       C  0.98628014  0.46877309  0.40314252     0.21000
C1692       C  0.97248025  0.45593396  0.38601026     0.26000
C1693       C  0.97480261  0.43031252  0.38344177    -0.22000
C1694       C  0.99012520  0.41760826  0.39987503     0.20900
F1695       F  0.99349952  0.39301016  0.39765262    -0.11900
F1696       F  0.01745826  0.41737788  0.43366236    -0.14300
F1697       F  0.95754037  0.46887001  0.37087412    -0.14300
F1698       F  0.98403007  0.49360158  0.40363660    -0.11900
C1699       C  0.07233619  0.57405397  0.49705872     0.26100
C1700       C  0.04688194  0.57382930  0.49314570    -0.22000
C1701       C  0.03307084  0.59396437  0.50143221     0.21000
C1702       C  0.04450333  0.61406539  0.51257124     0.26000
C1703       C  0.07007851  0.61480004  0.51540274    -0.22000
C1704       C  0.08381570  0.59438147  0.50778680     0.20900
F1705       F  0.10851633  0.59475911  0.50919641    -0.11900
F1706       F  0.08623440  0.55463104  0.49002274    -0.14300
F1707       F  0.03062778  0.63343381  0.51982833    -0.14300
F1708       F  0.00840347  0.59392563  0.49942907    -0.11900
C1709       C  0.92081545  0.49926293  0.42781639     0.26100
C1710       C  0.92050068  0.50013301  0.45367772    -0.22000
C1711       C  0.90136788  0.48786543  0.46595178     0.21000
C1712       C  0.88258352  0.47667700  0.45289411     0.26000
C1713       C  0.88179839  0.47791175  0.42721724    -0.22000
C1714       C  0.90172008  0.48820492  0.41478711     0.20900
F1715       F  0.90166987  0.48951401  0.39001365    -0.11900
F1716       F  0.93914194  0.50986301  0.41494310    -0.14300
F1717       F  0.86382265  0.46634868  0.46547143    -0.14300
F1718       F  0.90050167  0.48674316  0.49073017    -0.11900
C1719       C  0.93937860  0.43096186  0.47687255     0.26100
C1720       C  0.95009196  0.42471042  0.49946781    -0.22000
C1721       C  0.94169547  0.40392014  0.51201433     0.21000
C1722       C  0.92146299  0.39089468  0.50306423     0.26000
C1723       C  0.90892256  0.39895710  0.48186753    -0.22000
C1724       C  0.91879171  0.41850243  0.46835121     0.20900
F1725       F  0.90712786  0.42719770  0.44824902    -0.11900
F1726       F  0.94773509  0.45060821  0.46399547    -0.14300
F1727       F  0.91232977  0.37209148  0.51661773    -0.14300
F1728       F  0.95180213  0.39738245  0.53371505    -0.11900
C1729       C  0.58932594  0.98067468  0.56903470     0.26100
C1730       C  0.56447597  0.97427664  0.56605266    -0.22000
C1731       C  0.54772877  0.98304128  0.58341614     0.21000
C1732       C  0.55552829  0.99733430  0.60323750     0.26000
C1733       C  0.58049338  0.00315927  0.60675697    -0.22000
C1734       C  0.59724041  0.99467118  0.58918989     0.20900
F1735       F  0.62142398  0.99895303  0.59201271    -0.11900
F1736       F  0.60612324  0.97320739  0.55237379    -0.14300
F1737       F  0.53841493  0.00564944  0.61918242    -0.14300
F1738       F  0.52348997  0.97900947  0.58052039    -0.11900
C1739       C  0.60044782  0.07727789  0.50007679     0.26100
C1740       C  0.58443865  0.09432592  0.51084110    -0.22000
C1741       C  0.55911737  0.09004871  0.50883513     0.21000
C1742       C  0.55009320  0.06993617  0.49556749     0.26000
C1743       C  0.56614126  0.05330533  0.48413073    -0.22000
C1744       C  0.59143269  0.05698588  0.48708205     0.20900
F1745       F  0.60753858  0.04103226  0.47689543    -0.11900
F1746       F  0.62486574  0.08117575  0.50066278    -0.14300
F1747       F  0.52562947  0.06634867  0.49454783    -0.14300
F1748       F  0.54303231  0.10613351  0.51889597    -0.11900
C1749       C  0.53873413  0.04974538  0.57367218     0.26100
C1750       C  0.51741833  0.04886420  0.55919556    -0.22000
C1751       C  0.49847583  0.06544921  0.56443031     0.21000
C1752       C  0.50052215  0.08172630  0.58411719     0.26000
C1753       C  0.52075838  0.08061851  0.60009040    -0.22000
C1754       C  0.53948416  0.06390197  0.59490014     0.20900
F1755       F  0.55728412  0.05935853  0.61147481    -0.11900
F1756       F  0.55857816  0.03596562  0.56806086    -0.14300
F1757       F  0.48179855  0.09747381  0.58866271    -0.14300
F1758       F  0.47790935  0.06586264  0.55066979    -0.11900
C1759       C  0.42739150  0.97589605  0.40216145     0.26100
C1760       C  0.40367284  0.98129500  0.41003362    -0.22000
C1761       C  0.40049538  0.99196310  0.43326398     0.21000
C1762       C  0.42056569  0.99895937  0.44740431     0.26000
C1763       C  0.44448658  0.99447102  0.43919622    -0.22000
C1764       C  0.44753809  0.98210041  0.41660611     0.20900
F1765       F  0.47008939  0.97658517  0.40789111    -0.11900
F1766       F  0.43122933  0.96677690  0.37942769    -0.14300
F1767       F  0.41644473  0.01101757  0.46867908    -0.14300
F1768       F  0.37774534  0.99783348  0.44120842    -0.11900
C1769       C  0.42098309  0.94433449  0.49341616     0.26100
C1770       C  0.44140428  0.93148912  0.50250757    -0.22000
C1771       C  0.44144948  0.90556665  0.50059436     0.21000
C1772       C  0.42103676  0.89297859  0.49126814     0.26000
C1773       C  0.40041281  0.90600719  0.48288609    -0.22000
C1774       C  0.40114161  0.93184926  0.48330508     0.20900
F1775       F  0.38142634  0.94503992  0.47583349    -0.11900
F1776       F  0.41999552  0.96918021  0.49447608    -0.14300
F1777       F  0.42063674  0.86805247  0.49234449    -0.14300
F1778       F  0.46081440  0.89228634  0.50876240    -0.11900
C1779       C  0.52299400  0.90321667  0.42188165     0.26100
C1780       C  0.51221623  0.92053043  0.43745978    -0.22000
C1781       C  0.48658715  0.92024459  0.44028206     0.21000
C1782       C  0.47231161  0.90182596  0.42947581     0.26000
C1783       C  0.48322097  0.88366647  0.41499006    -0.22000
C1784       C  0.50862893  0.88509972  0.41059319     0.20900
F1785       F  0.51984858  0.86751737  0.39705111    -0.11900
F1786       F  0.54751547  0.90303249  0.41859831    -0.14300
F1787       F  0.44811066  0.90066388  0.43462817    -0.14300
F1788       F  0.47544167  0.93721032  0.45457232    -0.11900
C1789       C  0.58095831  0.54246284  0.00526900     0.26100
C1790       C  0.56166348  0.55651923  0.99542493    -0.22000
C1791       C  0.56370396  0.58243395  0.99621071     0.21000
C1792       C  0.58439625  0.59379699  0.00624619     0.26000
C1793       C  0.60376481  0.57963962  0.01554759    -0.22000
C1794       C  0.60149229  0.55382930  0.01538232     0.20900
F1795       F  0.61982426  0.53945437  0.02415070    -0.11900
F1796       F  0.58023005  0.51756830  0.00491763    -0.14300
F1797       F  0.58621464  0.61864722  0.00523170    -0.14300
F1798       F  0.54615464  0.59694164  0.98626190    -0.11900
C1799       C  0.49802470  0.60124800  0.02933049     0.26100
C1800       C  0.47961842  0.58796633  0.04160331    -0.22000
C1801       C  0.47749544  0.59098404  0.06715856     0.21000
C1802       C  0.49289033  0.60736208  0.07975041     0.26000
C1803       C  0.51136528  0.62032312  0.06724556    -0.22000
C1804       C  0.51402520  0.61649787  0.04202643     0.20900
F1805       F  0.53162365  0.62859998  0.02934730    -0.11900
F1806       F  0.50067849  0.59961965  0.00477620    -0.14300
F1807       F  0.48874594  0.61165404  0.10382185    -0.14300
F1808       F  0.45991748  0.57886949  0.07982957    -0.11900
C1809       C  0.58387645  0.50189383  0.07083356     0.26100
C1810       C  0.58086681  0.51458763  0.09302163    -0.22000
C1811       C  0.55770023  0.52392965  0.09877680     0.21000
C1812       C  0.53769380  0.51919814  0.08348671     0.26000
C1813       C  0.54028922  0.50425233  0.06245282    -0.22000
C1814       C  0.56384551  0.49604869  0.05624342     0.20900
F1815       F  0.56760520  0.48169508  0.03637054    -0.11900
F1816       F  0.60619001  0.49312170  0.06440138    -0.14300
F1817       F  0.51564867  0.52863749  0.08987388    -0.14300
F1818       F  0.55395585  0.53594835  0.12012775    -0.11900
C1819       C  0.43443923  0.41671541  0.98634609     0.26100
C1820       C  0.41027985  0.41272302  0.97850015    -0.22000
C1821       C  0.39297536  0.43147999  0.98232591     0.21000
C1822       C  0.39939489  0.45299100  0.99487011     0.26000
C1823       C  0.42302191  0.45596298  0.00459594    -0.22000
C1824       C  0.44056259  0.43769013  0.99975422     0.20900
F1825       F  0.46405839  0.44069338  0.00688028    -0.11900
F1826       F  0.45221108  0.40007517  0.98117727    -0.14300
F1827       F  0.38237090  0.47092713  0.99770280    -0.14300
F1828       F  0.36958152  0.42867954  0.97480718    -0.11900
C1829       C  0.42052352  0.52234841  0.90943353     0.26100
C1830       C  0.44526739  0.52264618  0.91645572    -0.22000
C1831       C  0.46158229  0.50711458  0.90398231     0.21000
C1832       C  0.45333884  0.49172846  0.88513595     0.26000
C1833       C  0.42849738  0.49138335  0.87807341    -0.22000
C1834       C  0.41226811  0.50695869  0.89062141     0.20900
F1835       F  0.38844991  0.50800072  0.88425943    -0.11900
F1836       F  0.40414328  0.53703793  0.92098779    -0.14300
F1837       F  0.46976877  0.47691099  0.87379860    -0.14300
F1838       F  0.48532213  0.50577779  0.91087291    -0.11900
C1839       C  0.45797296  0.44209059  0.92352018     0.26100
C1840       C  0.47841539  0.44431408  0.93922510    -0.22000
C1841       C  0.49795074  0.42785746  0.93608888     0.21000
C1842       C  0.49831539  0.41179959  0.91619538     0.26000
C1843       C  0.47966512  0.41244951  0.89848711    -0.22000
C1844       C  0.45886009  0.42669740  0.90305299     0.20900
F1845       F  0.44054087  0.42782992  0.88644720    -0.11900
F1846       F  0.43778896  0.45625446  0.92664302    -0.14300
F1847       F  0.51824092  0.39731239  0.91277167    -0.14300
F1848       F  0.51737630  0.42815726  0.95142104    -0.11900
loop_ 
_geom_bond_atom_site_label_1 
_geom_bond_atom_site_label_2 
_geom_bond_distance 
_geom_bond_site_symmetry_2 
_ccdc_geom_bond_type 
Zn1           O5   1.925       .  S
Zn1           O6   1.990       .  S
Zn1          O10   1.961       .  S
Zn1          O17   1.954   1_556  S
Zn2           O5   1.923       .  S
Zn2           O7   2.061       .  S
Zn2           O9   2.093       .  S
Zn2          O13   2.045   1_556  S
Zn3           O5   1.881       .  S
Zn3           O8   2.117       .  S
Zn3          O11   2.014       .  S
Zn3          O14   2.034   1_556  S
Zn4           O5   1.902   1_554  S
Zn4          O12   2.043       .  S
Zn4          O15   1.989       .  S
Zn4          O16   2.099       .  S
O6           C18   1.274       .  A
O7           C19   1.281       .  A
O8           C20   1.279       .  A
O9           C18   1.290       .  A
O10          C20   1.258       .  A
O11          C19   1.272       .  A
O12          C21   1.285       .  A
O13          C22   1.280       .  A
O14          C21   1.286       .  A
O15          C22   1.269       .  A
O16          C23   1.278       .  A
O17          C23   1.257       .  A
C18        C1840   1.495       .  S
C19        C1790   1.503       .  S
C20        C1830   1.495       .  S
C21        C1800   1.501       .  S
C22        C1813   1.497       .  S
C23        C1823   1.490       .  S
Zn24         O28   1.930       .  S
Zn24         O29   1.956       .  S
Zn24         O33   1.987   1_565  S
Zn24         O40   1.954   1_565  S
Zn25         O28   1.899       .  S
Zn25         O30   2.007       .  S
Zn25         O32   2.134       .  S
Zn25         O36   2.043       .  S
Zn26         O28   1.937       .  S
Zn26         O31   2.098   1_565  S
Zn26         O34   2.058       .  S
Zn26         O37   2.055   1_565  S
Zn27         O28   1.893       .  S
Zn27         O35   1.971       .  S
Zn27         O38   2.050       .  S
Zn27         O39   2.128   1_565  S
O29          C41   1.255       .  A
O30          C42   1.271       .  A
O31          C43   1.290       .  A
O32          C41   1.282       .  A
O33          C43   1.275       .  A
O34          C42   1.281       .  A
O35          C44   1.266       .  A
O36          C45   1.288       .  A
O37          C44   1.279   1_545  A
O38          C45   1.287       .  A
O39          C46   1.279       .  A
O40          C46   1.255       .  A
C41        C1730   1.501       .  S
C42        C1770   1.501       .  S
C43        C1750   1.492       .  S
C44        C1763   1.498       .  S
C45        C1780   1.495       .  S
C46        C1743   1.495       .  S
Zn47         O51   1.817   1_455  S
Zn47         O52   1.964   1_455  S
Zn47         O56   1.950       .  S
Zn47         O63   1.934       .  S
Zn48         O51   1.900       .  S
Zn48         O53   2.018       .  S
Zn48         O55   2.101       .  S
Zn48         O59   2.011       .  S
Zn49         O51   1.893       .  S
Zn49         O54   2.134   1_655  S
Zn49         O57   2.027       .  S
Zn49         O60   2.022   1_655  S
Zn50         O51   1.901   1_455  S
Zn50         O58   2.029       .  S
Zn50         O61   2.041   1_455  S
Zn50         O62   2.132       .  S
O52          C64   1.260       .  A
O53          C65   1.279       .  A
O54          C66   1.287       .  A
O55          C64   1.283       .  A
O56          C66   1.261       .  A
O57          C65   1.278       .  A
O58          C67   1.278       .  A
O59          C68   1.277       .  A
O60          C67   1.281       .  A
O61          C68   1.279       .  A
O62          C69   1.288       .  A
O63          C69   1.263       .  A
C64        C1670   1.479       .  S
C65        C1710   1.500       .  S
C66        C1700   1.491       .  S
C67        C1690   1.501       .  S
C68        C1720   1.481       .  S
C69        C1683   1.482       .  S
Zn70         O74   1.901   1_546  S
Zn70         O75   2.021   1_545  S
Zn70         O79   2.132       .  S
Zn70         O86   2.045   1_455  S
Zn71         O74   1.908       .  S
Zn71         O76   2.126       .  S
Zn71         O78   2.044   1_554  S
Zn71         O82   2.000   1_455  S
Zn72         O74   1.850   1_545  S
Zn72         O77   1.962       .  S
Zn72         O80   1.967   1_545  S
Zn72         O83   1.954       .  S
Zn73         O74   1.912   1_645  S
Zn73         O81   2.130       .  S
Zn73         O84   2.036   1_545  S
Zn73         O85   2.028   1_554  S
O75          C87   1.278       .  A
O76          C88   1.286       .  A
O77          C89   1.260   1_554  A
O78          C87   1.281       .  A
O79          C89   1.287       .  A
O80          C88   1.261       .  A
O81          C90   1.287       .  A
O82          C91   1.275       .  A
O83          C90   1.260   1_455  A
O84          C91   1.281       .  A
O85          C92   1.277       .  A
O86          C92   1.283       .  A
C87        C1663   1.488       .  S
C88        C1633   1.488       .  S
C89        C1610   1.486   1_556  S
C90        C1623   1.486   1_655  S
C91        C1643   1.502       .  S
C92        C1650   1.507   1_545  S
Zn93         O97   1.827       .  S
Zn93         O98   1.957       .  S
Zn93        O102   1.965       .  S
Zn93        O109   1.947       .  S
Zn94         O97   1.907       .  S
Zn94         O99   2.013       .  S
Zn94        O101   2.118       .  S
Zn94        O105   2.031       .  S
Zn95         O97   1.891       .  S
Zn95        O100   2.134       .  S
Zn95        O103   2.046       .  S
Zn95        O106   2.025       .  S
Zn96         O97   1.913       .  S
Zn96        O104   2.038       .  S
Zn96        O107   2.049       .  S
Zn96        O108   2.163       .  S
O98         C110   1.261       .  A
O99         C111   1.278       .  A
O100        C112   1.289       .  A
O101        C110   1.286       .  A
O102        C112   1.263       .  A
O103        C111   1.280       .  A
O104        C113   1.280       .  A
O105        C114   1.279       .  A
O106        C113   1.280       .  A
O107        C114   1.284       .  A
O108        C115   1.288       .  A
O109        C115   1.259       .  A
C110       C1600   1.484       .  S
C111       C1560   1.505       .  S
C112       C1573   1.490       .  S
C113       C1550   1.505       .  S
C114       C1583   1.508       .  S
C115       C1590   1.499       .  S
Zn116       O120   1.891       .  S
Zn116       O121   2.039       .  S
Zn116       O125   2.031       .  S
Zn116       O132   2.128       .  S
Zn117       O120   1.886       .  S
Zn117       O122   2.001       .  S
Zn117       O124   2.020       .  S
Zn117       O128   2.108       .  S
Zn118       O120   1.907       .  S
Zn118       O123   2.046       .  S
Zn118       O126   2.011       .  S
Zn118       O129   2.129       .  S
Zn119       O120   1.820       .  S
Zn119       O127   1.954       .  S
Zn119       O130   1.962       .  S
Zn119       O131   1.940       .  S
O121        C133   1.280       .  A
O122        C134   1.276       .  A
O123        C135   1.280       .  A
O124        C133   1.280       .  A
O125        C135   1.281       .  A
O126        C134   1.278       .  A
O127        C136   1.260       .  A
O128        C137   1.284       .  A
O129        C136   1.287       .  A
O130        C137   1.262       .  A
O131        C138   1.261       .  A
O132        C138   1.288       .  A
C133       C1530   1.505       .  S
C134       C1520   1.493       .  S
C135       C1513   1.508       .  S
C136       C1490   1.487       .  S
C137       C1540   1.484       .  S
C138       C1500   1.482       .  S
Zn139       O143   1.930       .  S
Zn139       O144   1.982       .  S
Zn139       O148   1.954       .  S
Zn139       O155   1.965       .  S
Zn140       O143   1.921       .  S
Zn140       O145   2.074       .  S
Zn140       O147   2.107       .  S
Zn140       O151   2.053       .  S
Zn141       O143   1.902       .  S
Zn141       O146   2.119       .  S
Zn141       O149   2.020       .  S
Zn141       O152   2.030       .  S
Zn142       O143   1.891       .  S
Zn142       O150   2.035       .  S
Zn142       O153   1.989       .  S
Zn142       O154   2.103       .  S
O144        C156   1.273       .  A
O145        C157   1.283       .  A
O146        C158   1.279       .  A
O147        C156   1.292       .  A
O148        C158   1.257       .  A
O149        C157   1.273       .  A
O150        C159   1.286       .  A
O151        C160   1.281       .  A
O152        C159   1.286       .  A
O153        C160   1.270       .  A
O154        C161   1.279       .  A
O155        C161   1.258       .  A
C156       C1460   1.497       .  S
C157       C1470   1.510       .  S
C158       C1480   1.496       .  S
C159       C1440   1.506       .  S
C160       C1430   1.492       .  S
C161       C1450   1.494       .  S
Zn162       O166   2.018       .  S
Zn162       O167   2.092       .  S
Zn162       O171   2.151       .  S
Zn162       O178   2.125       .  S
Zn163       O166   2.002       .  S
Zn163       O168   2.103       .  S
Zn163       O170   2.110       .  S
Zn163       O174   2.146       .  S
Zn164       O166   1.991       .  S
Zn164       O169   2.050       .  S
Zn164       O172   2.095       .  S
Zn164       O175   2.070       .  S
Zn165       O166   1.977       .  S
Zn165       O173   2.074       .  S
Zn165       O176   2.054       .  S
Zn165       O177   2.044       .  S
O167        C179   1.285       .  A
O168        C180   1.286       .  A
O169        C181   1.281       .  A
O170        C179   1.287       .  A
O171        C181   1.289       .  A
O172        C180   1.281       .  A
O173        C182   1.280       .  A
O174        C183   1.289       .  A
O175        C182   1.281       .  A
O176        C183   1.278       .  A
O177        C184   1.279       .  A
O178        C184   1.284       .  A
C179        N185   1.459       .  S
C180        N206   1.459       .  S
C181        N192   1.466       .  S
C182        N199   1.452       .  S
C183        N213   1.460       .  S
C184        N220   1.458       .  S
N185        C189   1.372       .  A
N185        C186   1.373       .  A
C186       C1420   1.480       .  S
C186        C187   1.380       .  A
C187        C188   1.357       .  A
C187        H190   1.082       .  S
C188        C189   1.379       .  A
C188        H191   1.082       .  S
C189       C1433   1.478       .  S
N192        C196   1.375       .  A
N192        C193   1.379       .  A
C193       C1833   1.506       .  S
C193        C194   1.384       .  A
C194        C195   1.355       .  A
C194        H197   1.082       .  S
C195        C196   1.380       .  A
C195        H198   1.082       .  S
C196       C1443   1.501       .  S
N199        C203   1.369       .  A
N199        C200   1.366       .  A
C200       C1843   1.483       .  S
C200        C201   1.380       .  A
C201        C202   1.361       .  A
C201        H204   1.084       .  S
C202        C203   1.381       .  A
C202        H205   1.084       .  S
C203       C1503   1.482       .  S
N206        C210   1.372       .  A
N206        C207   1.376       .  A
C207       C1473   1.498       .  S
C207        C208   1.383       .  A
C208        C209   1.355       .  A
C208        H211   1.083       .  S
C209        C210   1.379       .  A
C209        H212   1.083       .  S
C210       C1543   1.489       .  S
N213        C217   1.375       .  A
N213        C214   1.375       .  A
C214       C1410   1.480       .  S
C214        C215   1.379       .  A
C215        C216   1.351       .  A
C215        H218   1.082       .  S
C216        C217   1.380       .  A
C216        H219   1.082       .  S
C217       C1493   1.482       .  S
N220        C224   1.372       .  A
N220        C221   1.369       .  A
C221       C1820   1.495       .  S
C221        C222   1.384       .  A
C222        C223   1.358       .  A
C222        H225   1.081       .  S
C223        C224   1.381       .  A
C223        H226   1.082       .  S
C224       C1403   1.493       .  S
Zn227       O231   1.910   1_556  S
Zn227       O232   2.050       .  S
Zn227       O236   2.137       .  S
Zn227       O243   2.015       .  S
Zn228       O231   1.906       .  S
Zn228       O233   2.117       .  S
Zn228       O235   2.012   1_554  S
Zn228       O239   2.045       .  S
Zn229       O231   1.857       .  S
Zn229       O234   1.965       .  S
Zn229       O237   1.963       .  S
Zn229       O240   1.956       .  S
Zn230       O231   1.904       .  S
Zn230       O238   2.132       .  S
Zn230       O241   2.024       .  S
Zn230       O242   2.036   1_554  S
O232        C244   1.282       .  A
O233        C245   1.287       .  A
O234        C246   1.261   1_554  A
O235        C244   1.278       .  A
O236        C246   1.289       .  A
O237        C245   1.261       .  A
O238        C247   1.287       .  A
O239        C248   1.279       .  A
O240        C247   1.260       .  A
O241        C248   1.278       .  A
O242        C249   1.281       .  A
O243        C249   1.276       .  A
C244       C1423   1.504       .  S
C245       C1380   1.485       .  S
C246       C1370   1.491       .  S
C247       C1390   1.490       .  S
C248       C1400   1.490       .  S
C249       C1413   1.503       .  S
Zn250       O254   1.916       .  S
Zn250       O255   1.958       .  S
Zn250       O259   2.016       .  S
Zn250       O266   1.952       .  S
Zn251       O254   1.910       .  S
Zn251       O256   2.017       .  S
Zn251       O258   2.116       .  S
Zn251       O262   2.025       .  S
Zn252       O254   1.924       .  S
Zn252       O257   2.084       .  S
Zn252       O260   2.028       .  S
Zn252       O263   2.059       .  S
Zn253       O254   1.899       .  S
Zn253       O261   1.968       .  S
Zn253       O264   2.029       .  S
Zn253       O265   2.078       .  S
O255        C267   1.256       .  A
O256        C268   1.273       .  A
O257        C269   1.288       .  A
O258        C267   1.280       .  A
O259        C269   1.277       .  A
O260        C268   1.277       .  A
O261        C270   1.268       .  A
O262        C271   1.284       .  A
O263        C270   1.282       .  A
O264        C271   1.282       .  A
O265        C272   1.277       .  A
O266        C272   1.258       .  A
C267       C1360   1.493       .  S
C268       C1343   1.496       .  S
C269       C1353   1.485       .  S
C270       C1310   1.495       .  S
C271       C1320   1.507       .  S
C272       C1330   1.480       .  S
Zn273       O277   1.896       .  S
Zn273       O278   2.017       .  S
Zn273       O282   1.980       .  S
Zn273       O289   2.093       .  S
Zn274       O277   1.887       .  S
Zn274       O279   2.030       .  S
Zn274       O281   2.028       .  S
Zn274       O285   2.135       .  S
Zn275       O277   1.919       .  S
Zn275       O280   2.058       .  S
Zn275       O283   2.080       .  S
Zn275       O286   2.113       .  S
Zn276       O277   1.929       .  S
Zn276       O284   1.993       .  S
Zn276       O287   1.954       .  S
Zn276       O288   1.959       .  S
O278        C290   1.284       .  A
O279        C291   1.274       .  A
O280        C292   1.282       .  A
O281        C290   1.286       .  A
O282        C292   1.267       .  A
O283        C291   1.283       .  A
O284        C293   1.276       .  A
O285        C294   1.281       .  A
O286        C293   1.294       .  A
O287        C294   1.256       .  A
O288        C295   1.255       .  A
O289        C295   1.277       .  A
C290       C1300   1.483       .  S
C291       C1290   1.514       .  S
C292       C1270   1.496       .  S
C293       C1260   1.497       .  S
C294       C1280   1.503       .  S
C295       C1253   1.486       .  S
Zn296       O300   2.006       .  S
Zn296       O301   2.078       .  S
Zn296       O305   2.129       .  S
Zn296       O312   2.139       .  S
Zn297       O300   2.006       .  S
Zn297       O302   2.150       .  S
Zn297       O304   2.125       .  S
Zn297       O308   2.073       .  S
Zn298       O300   1.962       .  S
Zn298       O303   2.025       .  S
Zn298       O306   2.019       .  S
Zn298       O309   2.032       .  S
Zn299       O300   1.999       .  S
Zn299       O307   2.101       .  S
Zn299       O310   2.115       .  S
Zn299       O311   2.043       .  S
O301        C313   1.285       .  A
O302        C314   1.288       .  A
O303        C315   1.275       .  A
O304        C313   1.287       .  A
O305        C315   1.285       .  A
O306        C314   1.275       .  A
O307        C316   1.282       .  A
O308        C317   1.285       .  A
O309        C316   1.273       .  A
O310        C317   1.285       .  A
O311        C318   1.280       .  A
O312        C318   1.288       .  A
C313        N347   1.461       .  S
C314        N319   1.459       .  S
C315        N333   1.454       .  S
C316        N326   1.451       .  S
C317        N340   1.460       .  S
C318        N354   1.461       .  S
N319        C323   1.375       .  A
N319        C320   1.375       .  A
C320       C1240   1.494       .  S
C320        C321   1.383       .  A
C321        C322   1.355       .  A
C321        H324   1.084   1_554  S
C322        C323   1.378       .  A
C322        H325   1.083   1_554  S
C323       C1793   1.494       .  S
N326        C330   1.379       .  A
N326        C327   1.370       .  A
C327       C1810   1.485       .  S
C327        C328   1.379       .  A
C328        C329   1.356       .  A
C328        H331   1.083       .  S
C329        C330   1.384       .  A
C329        H332   1.083       .  S
C330       C1350   1.502       .  S
N333        C337   1.370       .  A
N333        C334   1.367       .  A
C334       C1230   1.484       .  S
C334        C335   1.378       .  A
C335        C336   1.357       .  A
C335        H338   1.084       .  S
C336        C337   1.384       .  A
C336        H339   1.083       .  S
C337       C1333   1.488       .  S
N340        C344   1.372       .  A
N340        C341   1.368       .  A
C341       C1803   1.493       .  S
C341        C342   1.382       .  A
C342        C343   1.358       .  A
C342        H345   1.083       .  S
C343        C344   1.381       .  A
C343        H346   1.083       .  S
C344       C1593   1.496       .  S
N347        C351   1.376       .  A
N347        C348   1.374       .  A
C348       C1220   1.497       .  S
C348        C349   1.383       .  A
C349        C350   1.354       .  A
C349        H352   1.082       .  S
C350        C351   1.380       .  A
C350        H353   1.082       .  S
C351       C1570   1.497       .  S
N354        C358   1.376       .  A
N354        C355   1.373       .  A
C355       C1603   1.498       .  S
C355        C356   1.379       .  A
C356        C357   1.353       .  A
C356        H359   1.082       .  S
C357        C358   1.385       .  A
C357        H360   1.082       .  S
C358       C1363   1.502       .  S
Zn361       O365   1.913       .  S
Zn361       O366   2.118       .  S
Zn361       O370   1.999       .  S
Zn361       O377   2.055       .  S
Zn362       O365   1.920   1_554  S
Zn362       O367   1.985       .  S
Zn362       O369   1.948   1_554  S
Zn362       O373   1.954       .  S
Zn363       O365   1.911   1_554  S
Zn363       O368   2.042   1_554  S
Zn363       O371   2.101       .  S
Zn363       O374   2.068       .  S
Zn364       O365   1.880   1_554  S
Zn364       O372   2.002       .  S
Zn364       O375   2.102       .  S
Zn364       O376   2.018   1_554  S
O366        C378   1.279       .  A
O367        C379   1.274       .  A
O368        C380   1.281       .  A
O369        C378   1.255       .  A
O370        C380   1.270       .  A
O371        C379   1.291       .  A
O372        C381   1.272       .  A
O373        C382   1.256       .  A
O374        C381   1.282       .  A
O375        C382   1.277       .  A
O376        C383   1.284       .  A
O377        C383   1.285       .  A
C378       C1243   1.492       .  S
C379       C1233   1.497       .  S
C380       C1200   1.497       .  S
C381       C1190   1.501       .  S
C382       C1223   1.496       .  S
C383       C1210   1.505       .  S
Zn384       O388   1.974       .  S
Zn384       O389   2.075       .  S
Zn384       O393   2.055       .  S
Zn384       O400   2.065       .  S
Zn385       O388   1.986       .  S
Zn385       O390   2.097       .  S
Zn385       O392   2.077       .  S
Zn385       O396   2.028       .  S
Zn386       O388   1.990       .  S
Zn386       O391   2.135       .  S
Zn386       O394   2.079       .  S
Zn386       O397   2.095       .  S
Zn387       O388   2.017       .  S
Zn387       O395   2.103       .  S
Zn387       O398   2.129       .  S
Zn387       O399   2.131       .  S
O389        C401   1.280       .  A
O390        C402   1.281       .  A
O391        C403   1.288       .  A
O392        C401   1.282       .  A
O393        C403   1.279       .  A
O394        C402   1.281       .  A
O395        C404   1.285       .  A
O396        C405   1.279       .  A
O397        C404   1.287       .  A
O398        C405   1.286       .  A
O399        C406   1.285       .  A
O400        C406   1.282       .  A
C401        N435   1.453       .  S
C402        N421   1.456       .  S
C403        N407   1.458       .  S
C404        N414   1.459       .  S
C405        N442   1.461       .  S
C406        N428   1.462       .  S
N407        C411   1.370       .  A
N407        C408   1.373       .  A
C408       C1673   1.480       .  S
C408        C409   1.381   1_455  A
C409        C410   1.351       .  A
C409        H412   1.082       .  S
C410        C411   1.379   1_655  A
C410        H413   1.082       .  S
C411       C1180   1.476       .  S
N414        C418   1.375       .  A
N414        C415   1.369       .  A
C415       C1173   1.471       .  S
C415        C416   1.378       .  A
C416        C417   1.353       .  A
C416        H419   1.082       .  S
C417        C418   1.381       .  A
C417        H420   1.082       .  S
C418       C1273   1.480       .  S
N421        C425   1.376       .  A
N421        C422   1.373       .  A
C422       C1703   1.490       .  S
C422        C423   1.380       .  A
C423        C424   1.359       .  A
C423        H426   1.080       .  S
C424        C425   1.384       .  A
C424        H427   1.080       .  S
C425       C1293   1.502       .  S
N428        C432   1.374       .  A
N428        C429   1.374       .  A
C429       C1160   1.494       .  S
C429        C430   1.379       .  A
C430        C431   1.356       .  A
C430        H433   1.083       .  S
C431        C432   1.384       .  A
C431        H434   1.082       .  S
C432       C1453   1.502       .  S
N435        C439   1.369       .  A
N435        C436   1.370       .  A
C436       C1680   1.480       .  S
C436        C437   1.380       .  A
C437        C438   1.360       .  A
C437        H440   1.084       .  S
C438        C439   1.381       .  A
C438        H441   1.083       .  S
C439       C1463   1.487       .  S
N442        C446   1.367       .  A
N442        C443   1.370       .  A
C443       C1483   1.504       .  S
C443        C444   1.386       .  A
C444        C445   1.363       .  A
C444        H447   1.081       .  S
C445        C446   1.385       .  A
C445        H448   1.081       .  S
C446       C1303   1.506       .  S
Zn449       O453   1.834   1_655  S
Zn449       O454   1.959       .  S
Zn449       O458   1.962       .  S
Zn449       O465   1.955   1_655  S
Zn450       O453   1.896   1_655  S
Zn450       O455   2.020       .  S
Zn450       O457   2.118       .  S
Zn450       O461   2.020   1_655  S
Zn451       O453   1.902   1_655  S
Zn451       O456   2.103       .  S
Zn451       O459   2.009       .  S
Zn451       O462   2.015   1_655  S
Zn452       O453   1.898       .  S
Zn452       O460   2.013       .  S
Zn452       O463   2.037       .  S
Zn452       O464   2.124       .  S
O454        C466   1.260       .  A
O455        C467   1.279       .  A
O456        C468   1.285       .  A
O457        C466   1.286       .  A
O458        C468   1.262       .  A
O459        C467   1.275       .  A
O460        C469   1.279       .  A
O461        C470   1.278       .  A
O462        C469   1.278       .  A
O463        C470   1.279       .  A
O464        C471   1.287       .  A
O465        C471   1.260       .  A
C466       C1153   1.482       .  S
C467       C1183   1.498       .  S
C468       C1140   1.482       .  S
C469       C1170   1.495       .  S
C470       C1163   1.485       .  S
C471       C1130   1.486       .  S
Zn472       O476   2.016       .  S
Zn472       O477   2.103       .  S
Zn472       O481   2.066       .  S
Zn472       O488   2.112       .  S
Zn473       O476   1.993       .  S
Zn473       O478   2.087       .  S
Zn473       O480   2.089       .  S
Zn473       O484   2.063       .  S
Zn474       O476   2.004       .  S
Zn474       O479   2.113       .  S
Zn474       O482   2.108       .  S
Zn474       O485   2.080       .  S
Zn475       O476   2.013       .  S
Zn475       O483   2.123       .  S
Zn475       O486   2.129       .  S
Zn475       O487   2.082       .  S
O477        C489   1.284       .  A
O478        C490   1.282       .  A
O479        C491   1.288       .  A
O480        C489   1.285       .  A
O481        C491   1.281       .  A
O482        C490   1.285       .  A
O483        C492   1.288       .  A
O484        C493   1.282       .  A
O485        C492   1.283       .  A
O486        C493   1.288       .  A
O487        C494   1.282       .  A
O488        C494   1.285       .  A
C489        N530   1.465       .  S
C490        N502   1.466       .  S
C491        N523   1.465       .  S
C492        N509   1.466       .  S
C493        N516   1.465       .  S
C494        N495   1.465       .  S
N495        C499   1.374       .  A
N495        C496   1.375       .  A
C496       C1193   1.480       .  S
C496        C497   1.378   1_556  A
C497        C498   1.355       .  A
C497        H500   1.082       .  S
C498        C499   1.380   1_554  A
C498        H501   1.082       .  S
C499       C1640   1.478       .  S
N502        C506   1.374       .  A
N502        C503   1.376       .  A
C503       C1120   1.489       .  S
C503        C504   1.379       .  A
C504        C505   1.351       .  A
C504        H507   1.083       .  S
C505        C506   1.384       .  A
C505        H508   1.082       .  S
C506       C1143   1.493       .  S
N509        C513   1.375       .  A
N509        C510   1.375       .  A
C510       C1150   1.483       .  S
C510        C511   1.377       .  A
C511        C512   1.351       .  A
C511        H514   1.083       .  S
C512        C513   1.385       .  A
C512        H515   1.082       .  S
C513       C1203   1.491       .  S
N516        C520   1.374       .  A
N516        C517   1.373       .  A
C517       C1110   1.486       .  S
C517        C518   1.377       .  A
C518        C519   1.352       .  A
C518        H521   1.082       .  S
C519        C520   1.386       .  A
C519        H522   1.083       .  S
C520       C1213   1.498       .  S
N523        C527   1.374       .  A
N523        C524   1.372       .  A
C524       C1133   1.500       .  S
C524        C525   1.385       .  A
C525        C526   1.359       .  A
C525        H528   1.082   1_655  S
C526        C527   1.379       .  A
C526        H529   1.083   1_655  S
C527       C1660   1.496       .  S
N530        C534   1.378       .  A
N530        C531   1.374       .  A
C531       C1103   1.482       .  S
C531        C532   1.378       .  A
C532        C533   1.357       .  A
C532        H535   1.080   1_565  S
C533        C534   1.381       .  A
C533        H536   1.081   1_565  S
C534       C1653   1.490       .  S
Zn537       O541   1.996       .  S
Zn537       O542   2.123       .  S
Zn537       O546   2.102       .  S
Zn537       O553   2.083       .  S
Zn538       O541   1.996       .  S
Zn538       O543   2.111       .  S
Zn538       O545   2.096       .  S
Zn538       O549   2.127       .  S
Zn539       O541   2.009       .  S
Zn539       O544   2.082       .  S
Zn539       O547   2.082       .  S
Zn539       O550   2.090       .  S
Zn540       O541   2.007       .  S
Zn540       O548   2.061       .  S
Zn540       O551   2.132       .  S
Zn540       O552   2.116       .  S
O542        C554   1.288       .  A
O543        C555   1.287       .  A
O544        C556   1.282       .  A
O545        C554   1.286       .  A
O546        C556   1.285       .  A
O547        C555   1.282       .  A
O548        C557   1.276       .  A
O549        C558   1.291       .  A
O550        C557   1.284       .  A
O551        C558   1.288       .  A
O552        C559   1.287       .  A
O553        C559   1.282       .  A
C554        N588   1.468       .  S
C555        N574   1.465       .  S
C556        N595   1.466       .  S
C557        N581   1.461       .  S
C558        N560   1.477       .  S
C559        N567   1.467       .  S
N560        C564   1.376       .  A
N560        C561   1.385       .  A
C561       C1733   1.508       .  S
C561        C562   1.385   1_545  A
C562        C563   1.351       .  A
C562        H565   1.083       .  S
C563        C564   1.378   1_565  A
C563        H566   1.083       .  S
C564       C1090   1.493       .  S
N567        C571   1.377       .  A
N567        C568   1.377       .  A
C568       C1740   1.495       .  S
C568        C569   1.382       .  A
C569        C570   1.359       .  A
C569        H572   1.085       .  S
C570        C571   1.378       .  A
C570        H573   1.085       .  S
C571       C1080   1.497       .  S
N574        C578   1.376       .  A
N574        C575   1.376       .  A
C575       C1510   1.493       .  S
C575        C576   1.378       .  A
C576        C577   1.353       .  A
C576        H579   1.088       .  S
C577        C578   1.384       .  A
C577        H580   1.084       .  S
C578       C1073   1.496       .  S
N581        C585   1.367       .  A
N581        C582   1.375       .  A
C582       C1753   1.488       .  S
C582        C583   1.380       .  A
C583        C584   1.358       .  A
C583        H586   1.082       .  S
C584        C585   1.380       .  A
C584        H587   1.082       .  S
C585       C1523   1.474       .  S
N588        C592   1.377       .  A
N588        C589   1.375       .  A
C589       C1050   1.493       .  S
C589        C590   1.380       .  A
C590        C591   1.355       .  A
C590        H593   1.085       .  S
C591        C592   1.381       .  A
C591        H594   1.084       .  S
C592       C1060   1.495       .  S
N595        C599   1.374       .  A
N595        C596   1.370       .  A
C596       C1040   1.488       .  S
C596        C597   1.379       .  A
C597        C598   1.359       .  A
C597        H600   1.083       .  S
C598        C599   1.383       .  A
C598        H601   1.084       .  S
C599       C1533   1.498       .  S
Zn602       O606   1.839   1_545  S
Zn602       O607   1.955   1_545  S
Zn602       O611   1.954       .  S
Zn602       O618   1.961       .  S
Zn603       O606   1.898       .  S
Zn603       O608   2.031       .  S
Zn603       O610   2.123       .  S
Zn603       O614   2.018       .  S
Zn604       O606   1.902       .  S
Zn604       O609   2.143   1_565  S
Zn604       O612   2.021       .  S
Zn604       O615   2.049   1_565  S
Zn605       O606   1.902   1_545  S
Zn605       O613   2.015       .  S
Zn605       O616   2.023   1_545  S
Zn605       O617   2.118       .  S
O607        C619   1.261       .  A
O608        C620   1.281       .  A
O609        C621   1.288       .  A
O610        C619   1.287       .  A
O611        C621   1.259       .  A
O612        C620   1.277       .  A
O613        C622   1.276       .  A
O614        C623   1.276       .  A
O615        C622   1.283       .  A
O616        C623   1.281       .  A
O617        C624   1.285       .  A
O618        C624   1.261       .  A
C619       C1093   1.484       .  S
C620       C1123   1.503       .  S
C621       C1063   1.489       .  S
C622       C1100   1.499   1_545  S
C623       C1113   1.498       .  S
C624       C1070   1.487       .  S
Zn625       O629   1.919       .  S
Zn625       O630   1.983       .  S
Zn625       O634   1.955       .  S
Zn625       O641   1.948       .  S
Zn626       O629   1.925       .  S
Zn626       O631   2.069       .  S
Zn626       O633   2.086       .  S
Zn626       O637   2.051       .  S
Zn627       O629   1.899       .  S
Zn627       O632   2.158       .  S
Zn627       O635   2.040       .  S
Zn627       O638   2.032       .  S
Zn628       O629   1.899       .  S
Zn628       O636   2.059       .  S
Zn628       O639   1.989       .  S
Zn628       O640   2.138       .  S
O630        C642   1.276       .  A
O631        C643   1.281       .  A
O632        C644   1.282       .  A
O633        C642   1.290       .  A
O634        C644   1.253       .  A
O635        C643   1.276       .  A
O636        C645   1.289       .  A
O637        C646   1.279       .  A
O638        C645   1.287       .  A
O639        C646   1.269       .  A
O640        C647   1.280       .  A
O641        C647   1.251       .  A
C642       C1030   1.487       .  S
C643       C1083   1.511       .  S
C644       C1010   1.513       .  S
C645       C1053   1.507       .  S
C646       C1043   1.479       .  S
C647       C1020   1.494       .  S
Zn648       O652   2.003       .  S
Zn648       O653   2.076       .  S
Zn648       O657   2.118       .  S
Zn648       O664   2.115       .  S
Zn649       O652   1.997       .  S
Zn649       O654   2.060       .  S
Zn649       O656   2.115       .  S
Zn649       O660   2.083       .  S
Zn650       O652   2.013       .  S
Zn650       O655   2.067       .  S
Zn650       O658   2.134       .  S
Zn650       O661   2.135       .  S
Zn651       O652   1.987       .  S
Zn651       O659   2.076       .  S
Zn651       O662   2.081       .  S
Zn651       O663   2.084       .  S
O653        C665   1.283       .  A
O654        C666   1.282       .  A
O655        C667   1.284       .  A
O656        C665   1.283       .  A
O657        C667   1.286       .  A
O658        C666   1.287       .  A
O659        C668   1.282       .  A
O660        C669   1.283       .  A
O661        C668   1.286       .  A
O662        C669   1.280       .  A
O663        C670   1.282       .  A
O664        C670   1.285       .  A
C665        N699   1.463       .  S
C666        N692   1.461       .  S
C667        N678   1.459       .  S
C668        N685   1.463       .  S
C669        N671   1.453       .  S
C670        N706   1.458       .  S
N671        C675   1.369       .  A
N671        C672   1.374       .  A
C672       C1263   1.495       .  S
C672        C673   1.385       .  A
C673        C674   1.359       .  A
C673        H676   1.082       .  S
C674        C675   1.377       .  A
C674        H677   1.083       .  S
C675       C1003   1.480       .  S
N678        C682   1.374       .  A
N678        C679   1.370       .  A
C679       C1783   1.493       .  S
C679        C680   1.380       .  A
C680        C681   1.359       .  A
C680        H683   1.083       .  S
C681        C682   1.384       .  A
C681        H684   1.082       .  S
C682       C1563   1.505       .  S
N685        C689   1.376       .  A
N685        C686   1.375       .  A
C686       C1250   1.490       .  S
C686        C687   1.382       .  A
C687        C688   1.350       .  A
C687        H690   1.084       .  S
C688        C689   1.378       .  A
C688        H691   1.084       .  S
C689       C1773   1.490       .  S
N692        C696   1.374       .  A
N692        C693   1.379       .  A
C693       C1283   1.501       .  S
C693        C694   1.383       .  A
C694        C695   1.356       .  A
C694        H697   1.084       .  S
C695        C696   1.377       .  A
C695        H698   1.083       .  S
C696       C1580   1.495       .  S
N699        C703   1.369       .  A
N699        C700   1.371       .  A
C700       C1553   1.496       .  S
C700        C701   1.381       .  A
C701        C702   1.359       .  A
C701        H704   1.082       .  S
C702        C703   1.382       .  A
C702        H705   1.083       .  S
C703        C990   1.491       .  S
N706        C710   1.375       .  A
N706        C707   1.372       .  A
C707       C1760   1.481       .  S
C707        C708   1.380   1_565  A
C708        C709   1.356       .  A
C708        H711   1.082       .  S
C709        C710   1.379   1_545  A
C709        H712   1.083       .  S
C710        C980   1.484       .  S
Zn713       O717   1.937   1_545  S
Zn713       O718   2.070   1_545  S
Zn713       O722   2.127       .  S
Zn713       O729   2.078       .  S
Zn714       O717   1.897       .  S
Zn714       O719   2.090       .  S
Zn714       O721   1.971       .  S
Zn714       O725   2.030       .  S
Zn715       O717   1.932   1_545  S
Zn715       O720   1.985       .  S
Zn715       O723   1.954   1_545  S
Zn715       O726   1.963       .  S
Zn716       O717   1.887   1_545  S
Zn716       O724   2.119       .  S
Zn716       O727   2.041   1_545  S
Zn716       O728   2.005       .  S
O718        C730   1.282       .  A
O719        C731   1.275       .  A
O720        C732   1.274       .  A
O721        C730   1.268       .  A
O722        C732   1.296       .  A
O723        C731   1.256       .  A
O724        C733   1.281       .  A
O725        C734   1.283       .  A
O726        C733   1.257       .  A
O727        C734   1.286       .  A
O728        C735   1.273       .  A
O729        C735   1.283       .  A
C730       C1000   1.501       .  S
C731        C950   1.490       .  S
C732        C963   1.500       .  S
C733        C970   1.497       .  S
C734        C993   1.487       .  S
C735        C983   1.508   1_545  S
Zn736       O740   1.991       .  S
Zn736       O741   2.074       .  S
Zn736       O745   2.051       .  S
Zn736       O752   2.118       .  S
Zn737       O740   2.013       .  S
Zn737       O742   2.145       .  S
Zn737       O744   2.142       .  S
Zn737       O748   2.089       .  S
Zn738       O740   1.999       .  S
Zn738       O743   2.087       .  S
Zn738       O746   2.051       .  S
Zn738       O749   2.098       .  S
Zn739       O740   1.991       .  S
Zn739       O747   2.071       .  S
Zn739       O750   2.105       .  S
Zn739       O751   2.087       .  S
O741        C753   1.284       .  A
O742        C754   1.288       .  A
O743        C755   1.280       .  A
O744        C753   1.289       .  A
O745        C755   1.279       .  A
O746        C754   1.280       .  A
O747        C756   1.282       .  A
O748        C757   1.285       .  A
O749        C756   1.283       .  A
O750        C757   1.284       .  A
O751        C758   1.283       .  A
O752        C758   1.283       .  A
C753        N794   1.465       .  S
C754        N766   1.463       .  S
C755        N780   1.450       .  S
C756        N773   1.455       .  S
C757        N759   1.458       .  S
C758        N787   1.462       .  S
N759        C763   1.375       .  A
N759        C760   1.375       .  A
C760       C1373   1.498       .  S
C760        C761   1.382       .  A
C761        C762   1.351       .  A
C761        H764   1.084   1_554  S
C762        C763   1.380       .  A
C762        H765   1.084   1_554  S
C763       C1613   1.495       .  S
N766        C770   1.376       .  A
N766        C767   1.374       .  A
C767        C953   1.504       .  S
C767        C768   1.385       .  A
C768        C769   1.353       .  A
C768        H771   1.080       .  S
C769        C770   1.384       .  A
C769        H772   1.081       .  S
C770       C1630   1.509       .  S
N773        C777   1.373       .  A
N773        C774   1.373       .  A
C774       C1620   1.483       .  S
C774        C775   1.378   1_455  A
C775        C776   1.353       .  A
C775        H778   1.083       .  S
C776        C777   1.383   1_655  A
C776        H779   1.082       .  S
C777        C943   1.491       .  S
N780        C784   1.369       .  A
N780        C781   1.369       .  A
C781        C960   1.487       .  S
C781        C782   1.379       .  A
C782        C783   1.356       .  A
C782        H785   1.084       .  S
C783        C784   1.382       .  A
C783        H786   1.083       .  S
C784        C933   1.488       .  S
N787        C791   1.382       .  A
N787        C788   1.375       .  A
C788       C1383   1.494       .  S
C788        C789   1.379       .  A
C789        C790   1.349       .  A
C789        H792   1.083       .  S
C790        C791   1.385       .  A
C790        H793   1.083       .  S
C791        C923   1.508       .  S
N794        C798   1.378       .  A
N794        C795   1.379       .  A
C795        C973   1.501       .  S
C795        C796   1.382       .  A
C796        C797   1.351       .  A
C796        H799   1.082       .  S
C797        C798   1.381       .  A
C797        H800   1.082       .  S
C798       C1393   1.503       .  S
Zn801       O805   2.021       .  S
Zn801       O806   2.054       .  S
Zn801       O810   2.093       .  S
Zn801       O817   2.104       .  S
Zn802       O805   2.005       .  S
Zn802       O807   2.109       .  S
Zn802       O809   2.078       .  S
Zn802       O813   2.097       .  S
Zn803       O805   1.997       .  S
Zn803       O808   2.056       .  S
Zn803       O811   2.114       .  S
Zn803       O814   2.122       .  S
Zn804       O805   1.986       .  S
Zn804       O812   2.095       .  S
Zn804       O815   2.078       .  S
Zn804       O816   2.090       .  S
O806        C818   1.278       .  A
O807        C819   1.284       .  A
O808        C820   1.278       .  A
O809        C818   1.281       .  A
O810        C820   1.284       .  A
O811        C819   1.288       .  A
O812        C821   1.287       .  A
O813        C822   1.285       .  A
O814        C821   1.287       .  A
O815        C822   1.283       .  A
O816        C823   1.283       .  A
O817        C823   1.283       .  A
C818        N859   1.457       .  S
C819        N831   1.473       .  S
C820        N824   1.460       .  S
C821        N838   1.472       .  S
C822        N845   1.463       .  S
C823        N852   1.466       .  S
N824        C828   1.376       .  A
N824        C825   1.370       .  A
C825       C1313   1.478       .  S
C825        C826   1.379       .  A
C826        C827   1.358       .  A
C826        H829   1.083       .  S
C827        C828   1.381       .  A
C827        H830   1.082       .  S
C828        C913   1.488       .  S
N831        C835   1.386       .  A
N831        C832   1.378       .  A
C832        C900   1.504       .  S
C832        C833   1.379       .  A
C833        C834   1.354       .  A
C833        H836   1.082       .  S
C834        C835   1.384       .  A
C834        H837   1.081       .  S
C835       C1013   1.516       .  S
N838        C842   1.372       .  A
N838        C839   1.380       .  A
C839        C893   1.511       .  S
C839        C840   1.387       .  A
C840        C841   1.352       .  A
C840        H843   1.080       .  S
C841        C842   1.377       .  A
C841        H844   1.082       .  S
C842       C1693   1.495       .  S
N845        C849   1.373       .  A
N845        C846   1.371       .  A
C846       C1723   1.489       .  S
C846        C847   1.378       .  A
C847        C848   1.360       .  A
C847        H850   1.083       .  S
C848        C849   1.382       .  A
C848        H851   1.083       .  S
C849       C1023   1.493       .  S
N852        C856   1.374       .  A
N852        C853   1.378       .  A
C853       C1323   1.492       .  S
C853        C854   1.383       .  A
C854        C855   1.350       .  A
C854        H857   1.083       .  S
C855        C856   1.379       .  A
C855        H858   1.083       .  S
C856       C1713   1.483       .  S
N859        C863   1.368       .  A
N859        C860   1.367       .  A
C860       C1340   1.481       .  S
C860        C861   1.382       .  A
C861        C862   1.363       .  A
C861        H864   1.080       .  S
C862        C863   1.380       .  A
C862        H865   1.082       .  S
C863       C1033   1.478       .  S
Zn866       O870   1.928   1_655  S
Zn866       O871   1.958       .  S
Zn866       O875   1.991       .  S
Zn866       O882   1.960   1_655  S
Zn867       O870   1.899       .  S
Zn867       O872   2.009       .  S
Zn867       O874   2.123   1_455  S
Zn867       O878   2.038       .  S
Zn868       O870   1.921   1_655  S
Zn868       O873   2.103       .  S
Zn868       O876   2.048       .  S
Zn868       O879   2.070   1_655  S
Zn869       O870   1.892       .  S
Zn869       O877   2.032       .  S
Zn869       O880   2.018       .  S
Zn869       O881   2.123       .  S
O871        C883   1.256       .  A
O872        C884   1.270   1_455  A
O873        C885   1.291       .  A
O874        C883   1.281       .  A
O875        C885   1.275       .  A
O876        C884   1.280       .  A
O877        C886   1.274       .  A
O878        C887   1.286       .  A
O879        C886   1.284       .  A
O880        C887   1.285       .  A
O881        C888   1.282       .  A
O882        C888   1.256       .  A
C883        C903   1.497       .  S
C884        C940   1.502   1_655  S
C885        C910   1.490       .  S
C886        C920   1.512       .  S
C887        C930   1.502       .  S
C888        C890   1.498       .  S
C889        C890   1.417       .  A
C889        C894   1.410   1_455  A
C889        F896   1.358       .  S
C890        C891   1.403       .  A
C891        C892   1.404   1_455  A
C891        F898   1.358       .  S
C892        C893   1.422       .  A
C892        F897   1.357       .  S
C893        C894   1.408       .  A
C894        F895   1.357       .  S
C899        C900   1.408       .  A
C899        C904   1.412       .  A
C899        F906   1.357       .  S
C900        C901   1.415       .  A
C901        C902   1.404       .  A
C901        F908   1.358       .  S
C902        C903   1.406       .  A
C902        F907   1.358       .  S
C903        C904   1.415       .  A
C904        F905   1.358       .  S
C909        C910   1.411       .  A
C909        C914   1.399       .  A
C909        F916   1.351       .  S
C910        C911   1.402       .  A
C911        C912   1.403       .  A
C911        F918   1.357       .  S
C912        C913   1.415       .  A
C912        F917   1.358       .  S
C913        C914   1.401       .  A
C914        F915   1.357       .  S
C919        C920   1.406       .  A
C919        C924   1.400       .  A
C919        F926   1.356       .  S
C920        C921   1.421       .  A
C921        C922   1.418       .  A
C921        F928   1.357       .  S
C922        C923   1.409       .  A
C922        F927   1.357       .  S
C923        C924   1.416       .  A
C924        F925   1.358       .  S
C929        C930   1.413       .  A
C929        C934   1.398       .  A
C929        F936   1.358       .  S
C930        C931   1.417       .  A
C931        C932   1.410       .  A
C931        F938   1.358       .  S
C932        C933   1.407       .  A
C932        F937   1.358       .  S
C933        C934   1.405       .  A
C934        F935   1.358       .  S
C939        C940   1.406       .  A
C939        C944   1.396       .  A
C939        F946   1.355   1_455  S
C940        C941   1.419       .  A
C941        C942   1.413       .  A
C941        F948   1.358       .  S
C942        C943   1.407       .  A
C942        F947   1.357       .  S
C943        C944   1.408       .  A
C944        F945   1.358       .  S
C949        C950   1.412       .  A
C949        C954   1.405   1_565  A
C949        F956   1.358       .  S
C950        C951   1.405       .  A
C951        C952   1.402   1_565  A
C951        F958   1.358       .  S
C952        C953   1.417       .  A
C952        F957   1.358       .  S
C953        C954   1.408       .  A
C954        F955   1.355       .  S
C959        C960   1.411       .  A
C959        C964   1.401       .  A
C959        F966   1.358       .  S
C960        C961   1.400       .  A
C961        C962   1.406       .  A
C961        F968   1.358       .  S
C962        C963   1.423       .  A
C962        F967   1.358       .  S
C963        C964   1.404       .  A
C964        F965   1.357       .  S
C969        C970   1.405       .  A
C969        C974   1.403       .  A
C969        F976   1.358       .  S
C970        C971   1.416       .  A
C971        C972   1.412       .  A
C971        F978   1.358       .  S
C972        C973   1.407       .  A
C972        F977   1.357       .  S
C973        C974   1.416       .  A
C974        F975   1.358       .  S
C979        C980   1.408       .  A
C979        C984   1.410       .  A
C979        F986   1.358       .  S
C980        C981   1.406       .  A
C981        C982   1.406       .  A
C981        F988   1.358       .  S
C982        C983   1.416       .  A
C982        F987   1.358       .  S
C983        C984   1.413       .  A
C984        F985   1.357       .  S
C989        C990   1.400       .  A
C989        C994   1.404       .  A
C989        F996   1.357       .  S
C990        C991   1.417       .  A
C991        C992   1.408       .  A
C991        F998   1.358       .  S
C992        C993   1.401       .  A
C992        F997   1.357       .  S
C993        C994   1.410       .  A
C994        F995   1.354       .  S
C999       C1000   1.409       .  A
C999       C1004   1.405       .  A
C999       F1006   1.357       .  S
C1000      C1001   1.421       .  A
C1001      C1002   1.401       .  A
C1001      F1008   1.358       .  S
C1002      C1003   1.398       .  A
C1002      F1007   1.358       .  S
C1003      C1004   1.410       .  A
C1004      F1005   1.358       .  S
C1009      C1010   1.405       .  A
C1009      C1014   1.411       .  A
C1009      F1016   1.357       .  S
C1010      C1011   1.424       .  A
C1011      C1012   1.413       .  A
C1011      F1018   1.358       .  S
C1012      C1013   1.406       .  A
C1012      F1017   1.357       .  S
C1013      C1014   1.423       .  A
C1014      F1015   1.358       .  S
C1019      C1020   1.414       .  A
C1019      C1024   1.408       .  A
C1019      F1026   1.358       .  S
C1020      C1021   1.408       .  A
C1021      C1022   1.407       .  A
C1021      F1028   1.357       .  S
C1022      C1023   1.411       .  A
C1022      F1027   1.358       .  S
C1023      C1024   1.407       .  A
C1024      F1025   1.358       .  S
C1029      C1030   1.404       .  A
C1029      C1034   1.402       .  A
C1029      F1036   1.358       .  S
C1030      C1031   1.414       .  A
C1031      C1032   1.395       .  A
C1031      F1038   1.353       .  S
C1032      C1033   1.397       .  A
C1032      F1037   1.357       .  S
C1033      C1034   1.412       .  A
C1034      F1035   1.358       .  S
C1039      C1040   1.417       .  A
C1039      C1044   1.406       .  A
C1039      F1046   1.358       .  S
C1040      C1041   1.402       .  A
C1041      C1042   1.399       .  A
C1041      F1048   1.355       .  S
C1042      C1043   1.410       .  A
C1042      F1047   1.358       .  S
C1043      C1044   1.400       .  A
C1044      F1045   1.357       .  S
C1049      C1050   1.406       .  A
C1049      C1054   1.400       .  A
C1049      F1056   1.358       .  S
C1050      C1051   1.411       .  A
C1051      C1052   1.416       .  A
C1051      F1058   1.358       .  S
C1052      C1053   1.416       .  A
C1052      F1057   1.358       .  S
C1053      C1054   1.412       .  A
C1054      F1055   1.357       .  S
C1059      C1060   1.406       .  A
C1059      C1064   1.409       .  A
C1059      F1066   1.357       .  S
C1060      C1061   1.413       .  A
C1061      C1062   1.404       .  A
C1061      F1068   1.358       .  S
C1062      C1063   1.405       .  A
C1062      F1067   1.358       .  S
C1063      C1064   1.413       .  A
C1064      F1065   1.357       .  S
C1069      C1070   1.404       .  A
C1069      C1074   1.401       .  A
C1069      F1076   1.358       .  S
C1070      C1071   1.413       .  A
C1071      C1072   1.408       .  A
C1071      F1078   1.357       .  S
C1072      C1073   1.406       .  A
C1072      F1077   1.357       .  S
C1073      C1074   1.415       .  A
C1074      F1075   1.359       .  S
C1079      C1080   1.407       .  A
C1079      C1084   1.413       .  A
C1079      F1086   1.357       .  S
C1080      C1081   1.409       .  A
C1081      C1082   1.405       .  A
C1081      F1088   1.358       .  S
C1082      C1083   1.413       .  A
C1082      F1087   1.358       .  S
C1083      C1084   1.417       .  A
C1084      F1085   1.357       .  S
C1089      C1090   1.413       .  A
C1089      C1094   1.402   1_545  A
C1089      F1096   1.359       .  S
C1090      C1091   1.407       .  A
C1091      C1092   1.408   1_545  A
C1091      F1098   1.357       .  S
C1092      C1093   1.411       .  A
C1092      F1097   1.357       .  S
C1093      C1094   1.404       .  A
C1094      F1095   1.358       .  S
C1099      C1100   1.414       .  A
C1099      C1104   1.405       .  A
C1099      F1106   1.356       .  S
C1100      C1101   1.411   1_565  A
C1101      C1102   1.406   1_545  A
C1101      F1108   1.357       .  S
C1102      C1103   1.408       .  A
C1102      F1107   1.358   1_565  S
C1103      C1104   1.404       .  A
C1104      F1105   1.358       .  S
C1109      C1110   1.407       .  A
C1109      C1114   1.408       .  A
C1109      F1116   1.357       .  S
C1110      C1111   1.406       .  A
C1111      C1112   1.400       .  A
C1111      F1118   1.358       .  S
C1112      C1113   1.412       .  A
C1112      F1117   1.357       .  S
C1113      C1114   1.414       .  A
C1114      F1115   1.357       .  S
C1119      C1120   1.408       .  A
C1119      C1124   1.401       .  A
C1119      F1126   1.359       .  S
C1120      C1121   1.407       .  A
C1121      C1122   1.411       .  A
C1121      F1128   1.358       .  S
C1122      C1123   1.416       .  A
C1122      F1127   1.357       .  S
C1123      C1124   1.412       .  A
C1124      F1125   1.358       .  S
C1129      C1130   1.413       .  A
C1129      C1134   1.408   1_455  A
C1129      F1136   1.357       .  S
C1130      C1131   1.402       .  A
C1131      C1132   1.401   1_455  A
C1131      F1138   1.358       .  S
C1132      C1133   1.415       .  A
C1132      F1137   1.358       .  S
C1133      C1134   1.409       .  A
C1134      F1135   1.357       .  S
C1139      C1140   1.402       .  A
C1139      C1144   1.395       .  A
C1139      F1146   1.358       .  S
C1140      C1141   1.412       .  A
C1141      C1142   1.410       .  A
C1141      F1148   1.358       .  S
C1142      C1143   1.408       .  A
C1142      F1147   1.357       .  S
C1143      C1144   1.412       .  A
C1144      F1145   1.359       .  S
C1149      C1150   1.409       .  A
C1149      C1154   1.401       .  A
C1149      F1156   1.358       .  S
C1150      C1151   1.408       .  A
C1151      C1152   1.407       .  A
C1151      F1158   1.358       .  S
C1152      C1153   1.410       .  A
C1152      F1157   1.358       .  S
C1153      C1154   1.403       .  A
C1154      F1155   1.357       .  S
C1159      C1160   1.402       .  A
C1159      C1164   1.405       .  A
C1159      F1166   1.358       .  S
C1160      C1161   1.419       .  A
C1161      C1162   1.408       .  A
C1161      F1168   1.358       .  S
C1162      C1163   1.398       .  A
C1162      F1167   1.357       .  S
C1163      C1164   1.412       .  A
C1164      F1165   1.358       .  S
C1169      C1170   1.411       .  A
C1169      C1174   1.406       .  A
C1169      F1176   1.357       .  S
C1170      C1171   1.416       .  A
C1171      C1172   1.398       .  A
C1171      F1178   1.357       .  S
C1172      C1173   1.400       .  A
C1172      F1177   1.358       .  S
C1173      C1174   1.408       .  A
C1174      F1175   1.358       .  S
C1179      C1180   1.405       .  A
C1179      C1184   1.397       .  A
C1179      F1186   1.359       .  S
C1180      C1181   1.403       .  A
C1181      C1182   1.406   1_455  A
C1181      F1188   1.358       .  S
C1182      C1183   1.417       .  A
C1182      F1187   1.358       .  S
C1183      C1184   1.413   1_655  A
C1184      F1185   1.358       .  S
C1189      C1190   1.410       .  A
C1189      C1194   1.405   1_554  A
C1189      F1196   1.354       .  S
C1190      C1191   1.413       .  A
C1191      C1192   1.404   1_554  A
C1191      F1198   1.356       .  S
C1192      C1193   1.404       .  A
C1192      F1197   1.358       .  S
C1193      C1194   1.407       .  A
C1194      F1195   1.358       .  S
C1199      C1200   1.405       .  A
C1199      C1204   1.395       .  A
C1199      F1206   1.358       .  S
C1200      C1201   1.419       .  A
C1201      C1202   1.410       .  A
C1201      F1208   1.358       .  S
C1202      C1203   1.406       .  A
C1202      F1207   1.357       .  S
C1203      C1204   1.411       .  A
C1204      F1205   1.359       .  S
C1209      C1210   1.417       .  A
C1209      C1214   1.416       .  A
C1209      F1216   1.357       .  S
C1210      C1211   1.409       .  A
C1211      C1212   1.396       .  A
C1211      F1218   1.357       .  S
C1212      C1213   1.408       .  A
C1212      F1217   1.359       .  S
C1213      C1214   1.410       .  A
C1214      F1215   1.357       .  S
C1219      C1220   1.406       .  A
C1219      C1224   1.408       .  A
C1219      F1226   1.357       .  S
C1220      C1221   1.414       .  A
C1221      C1222   1.402       .  A
C1221      F1228   1.358       .  S
C1222      C1223   1.406       .  A
C1222      F1227   1.358       .  S
C1223      C1224   1.416       .  A
C1224      F1225   1.358       .  S
C1229      C1230   1.412       .  A
C1229      C1234   1.401       .  A
C1229      F1236   1.359       .  S
C1230      C1231   1.398       .  A
C1231      C1232   1.401       .  A
C1231      F1238   1.357       .  S
C1232      C1233   1.421       .  A
C1232      F1237   1.358       .  S
C1233      C1234   1.406       .  A
C1234      F1235   1.358       .  S
C1239      C1240   1.405       .  A
C1239      C1244   1.406   1_554  A
C1239      F1246   1.357       .  S
C1240      C1241   1.414       .  A
C1241      C1242   1.406   1_554  A
C1241      F1248   1.359       .  S
C1242      C1243   1.407       .  A
C1242      F1247   1.358       .  S
C1243      C1244   1.413       .  A
C1244      F1245   1.358       .  S
C1249      C1250   1.411       .  A
C1249      C1254   1.400       .  A
C1249      F1256   1.358       .  S
C1250      C1251   1.408       .  A
C1251      C1252   1.409       .  A
C1251      F1258   1.357       .  S
C1252      C1253   1.412       .  A
C1252      F1257   1.358       .  S
C1253      C1254   1.404       .  A
C1254      F1255   1.358       .  S
C1259      C1260   1.420       .  A
C1259      C1264   1.407       .  A
C1259      F1266   1.356       .  S
C1260      C1261   1.401       .  A
C1261      C1262   1.400       .  A
C1261      F1268   1.358       .  S
C1262      C1263   1.416       .  A
C1262      F1267   1.358       .  S
C1263      C1264   1.403       .  A
C1264      F1265   1.357       .  S
C1269      C1270   1.415       .  A
C1269      C1274   1.409       .  A
C1269      F1276   1.358       .  S
C1270      C1271   1.405       .  A
C1271      C1272   1.402       .  A
C1271      F1278   1.354       .  S
C1272      C1273   1.409       .  A
C1272      F1277   1.358       .  S
C1273      C1274   1.407       .  A
C1274      F1275   1.358       .  S
C1279      C1280   1.407       .  A
C1279      C1284   1.409       .  A
C1279      F1286   1.357       .  S
C1280      C1281   1.418       .  A
C1281      C1282   1.407       .  A
C1281      F1288   1.358       .  S
C1282      C1283   1.404       .  A
C1282      F1287   1.357       .  S
C1283      C1284   1.417       .  A
C1284      F1285   1.358       .  S
C1289      C1290   1.410       .  A
C1289      C1294   1.405       .  A
C1289      F1296   1.356       .  S
C1290      C1291   1.421       .  A
C1291      C1292   1.413       .  A
C1291      F1298   1.357       .  S
C1292      C1293   1.405       .  A
C1292      F1297   1.357       .  S
C1293      C1294   1.413       .  A
C1294      F1295   1.359       .  S
C1299      C1300   1.396       .  A
C1299      C1304   1.399       .  A
C1299      F1306   1.358       .  S
C1300      C1301   1.414       .  A
C1301      C1302   1.406       .  A
C1301      F1308   1.356       .  S
C1302      C1303   1.407       .  A
C1302      F1307   1.358       .  S
C1303      C1304   1.423       .  A
C1304      F1305   1.356       .  S
C1309      C1310   1.406       .  A
C1309      C1314   1.400       .  A
C1309      F1316   1.357       .  S
C1310      C1311   1.420       .  A
C1311      C1312   1.401       .  A
C1311      F1318   1.357       .  S
C1312      C1313   1.399       .  A
C1312      F1317   1.358       .  S
C1313      C1314   1.409       .  A
C1314      F1315   1.358       .  S
C1319      C1320   1.417       .  A
C1319      C1324   1.413       .  A
C1319      F1326   1.357       .  S
C1320      C1321   1.410       .  A
C1321      C1322   1.401       .  A
C1321      F1328   1.357       .  S
C1322      C1323   1.410       .  A
C1322      F1327   1.359       .  S
C1323      C1324   1.407       .  A
C1324      F1325   1.357       .  S
C1329      C1330   1.410       .  A
C1329      C1334   1.401       .  A
C1329      F1336   1.358       .  S
C1330      C1331   1.405       .  A
C1331      C1332   1.400       .  A
C1331      F1338   1.358       .  S
C1332      C1333   1.413       .  A
C1332      F1337   1.358       .  S
C1333      C1334   1.406       .  A
C1334      F1335   1.357       .  S
C1339      C1340   1.404       .  A
C1339      C1344   1.400       .  A
C1339      F1346   1.358       .  S
C1340      C1341   1.405       .  A
C1341      C1342   1.405       .  A
C1341      F1348   1.358       .  S
C1342      C1343   1.413       .  A
C1342      F1347   1.356       .  S
C1343      C1344   1.412       .  A
C1344      F1345   1.357       .  S
C1349      C1350   1.420       .  A
C1349      C1354   1.401       .  A
C1349      F1356   1.359       .  S
C1350      C1351   1.408       .  A
C1351      C1352   1.405       .  A
C1351      F1358   1.351       .  S
C1352      C1353   1.408       .  A
C1352      F1357   1.354       .  S
C1353      C1354   1.399       .  A
C1354      F1355   1.358       .  S
C1359      C1360   1.415       .  A
C1359      C1364   1.408       .  A
C1359      F1366   1.358       .  S
C1360      C1361   1.404       .  A
C1361      C1362   1.403       .  A
C1361      F1368   1.357       .  S
C1362      C1363   1.415       .  A
C1362      F1367   1.357       .  S
C1363      C1364   1.407       .  A
C1364      F1365   1.357       .  S
C1369      C1370   1.414   1_554  A
C1369      C1374   1.414       .  A
C1369      F1376   1.357       .  S
C1370      C1371   1.403   1_556  A
C1371      C1372   1.400       .  A
C1371      F1378   1.357       .  S
C1372      C1373   1.413       .  A
C1372      F1377   1.359       .  S
C1373      C1374   1.409       .  A
C1374      F1375   1.357       .  S
C1379      C1380   1.403       .  A
C1379      C1384   1.399       .  A
C1379      F1386   1.358       .  S
C1380      C1381   1.413       .  A
C1381      C1382   1.410       .  A
C1381      F1388   1.358       .  S
C1382      C1383   1.407       .  A
C1382      F1387   1.357       .  S
C1383      C1384   1.413       .  A
C1384      F1385   1.359       .  S
C1389      C1390   1.402       .  A
C1389      C1394   1.402       .  A
C1389      F1396   1.358       .  S
C1390      C1391   1.414       .  A
C1391      C1392   1.410       .  A
C1391      F1398   1.356       .  S
C1392      C1393   1.407       .  A
C1392      F1397   1.357       .  S
C1393      C1394   1.417       .  A
C1394      F1395   1.358       .  S
C1399      C1400   1.412   1_556  A
C1399      C1404   1.404       .  A
C1399      F1406   1.358       .  S
C1400      C1401   1.402       .  A
C1401      C1402   1.411       .  A
C1401      F1408   1.357       .  S
C1402      C1403   1.418   1_554  A
C1402      F1407   1.358       .  S
C1403      C1404   1.401       .  A
C1404      F1405   1.357       .  S
C1409      C1410   1.407       .  A
C1409      C1414   1.402       .  A
C1409      F1416   1.358       .  S
C1410      C1411   1.406       .  A
C1411      C1412   1.409       .  A
C1411      F1418   1.358       .  S
C1412      C1413   1.416       .  A
C1412      F1417   1.358       .  S
C1413      C1414   1.413       .  A
C1414      F1415   1.358       .  S
C1419      C1420   1.402       .  A
C1419      C1424   1.402       .  A
C1419      F1426   1.359       .  S
C1420      C1421   1.410       .  A
C1421      C1422   1.411       .  A
C1421      F1428   1.358       .  S
C1422      C1423   1.411       .  A
C1422      F1427   1.357       .  S
C1423      C1424   1.418       .  A
C1424      F1425   1.358       .  S
C1429      C1430   1.408       .  A
C1429      C1434   1.402       .  A
C1429      F1436   1.354       .  S
C1430      C1431   1.411       .  A
C1431      C1432   1.405       .  A
C1431      F1438   1.358       .  S
C1432      C1433   1.408       .  A
C1432      F1437   1.358       .  S
C1433      C1434   1.406       .  A
C1434      F1435   1.358       .  S
C1439      C1440   1.415       .  A
C1439      C1444   1.410       .  A
C1439      F1446   1.357       .  S
C1440      C1441   1.412       .  A
C1441      C1442   1.403       .  A
C1441      F1448   1.357       .  S
C1442      C1443   1.410       .  A
C1442      F1447   1.358       .  S
C1443      C1444   1.408       .  A
C1444      F1445   1.354       .  S
C1449      C1450   1.414       .  A
C1449      C1454   1.411       .  A
C1449      F1456   1.358       .  S
C1450      C1451   1.405       .  A
C1451      C1452   1.401       .  A
C1451      F1458   1.358       .  S
C1452      C1453   1.414       .  A
C1452      F1457   1.358       .  S
C1453      C1454   1.409       .  A
C1454      F1455   1.357       .  S
C1459      C1460   1.404       .  A
C1459      C1464   1.400       .  A
C1459      F1466   1.357       .  S
C1460      C1461   1.420       .  A
C1461      C1462   1.403       .  A
C1461      F1468   1.358       .  S
C1462      C1463   1.401       .  A
C1462      F1467   1.357       .  S
C1463      C1464   1.412       .  A
C1464      F1465   1.358       .  S
C1469      C1470   1.408       .  A
C1469      C1474   1.403       .  A
C1469      F1476   1.357       .  S
C1470      C1471   1.420       .  A
C1471      C1472   1.412       .  A
C1471      F1478   1.355       .  S
C1472      C1473   1.406       .  A
C1472      F1477   1.358       .  S
C1473      C1474   1.413       .  A
C1474      F1475   1.358       .  S
C1479      C1480   1.412       .  A
C1479      C1484   1.402       .  A
C1479      F1486   1.358       .  S
C1480      C1481   1.408       .  A
C1481      C1482   1.409       .  A
C1481      F1488   1.357       .  S
C1482      C1483   1.417       .  A
C1482      F1487   1.358       .  S
C1483      C1484   1.408       .  A
C1484      F1485   1.358       .  S
C1489      C1490   1.414       .  A
C1489      C1494   1.405       .  A
C1489      F1496   1.356       .  S
C1490      C1491   1.404       .  A
C1491      C1492   1.403       .  A
C1491      F1498   1.357       .  S
C1492      C1493   1.412       .  A
C1492      F1497   1.358       .  S
C1493      C1494   1.403       .  A
C1494      F1495   1.358       .  S
C1499      C1500   1.405       .  A
C1499      C1504   1.404       .  A
C1499      F1506   1.357       .  S
C1500      C1501   1.412       .  A
C1501      C1502   1.400       .  A
C1501      F1508   1.357       .  S
C1502      C1503   1.404       .  A
C1502      F1507   1.358       .  S
C1503      C1504   1.410       .  A
C1504      F1505   1.358       .  S
C1509      C1510   1.407       .  A
C1509      C1514   1.413       .  A
C1509      F1516   1.357       .  S
C1510      C1511   1.408       .  A
C1511      C1512   1.401       .  A
C1511      F1518   1.359       .  S
C1512      C1513   1.414       .  A
C1512      F1517   1.358       .  S
C1513      C1514   1.418       .  A
C1514      F1515   1.357       .  S
C1519      C1520   1.413       .  A
C1519      C1524   1.399       .  A
C1519      F1526   1.358       .  S
C1520      C1521   1.416       .  A
C1521      C1522   1.401       .  A
C1521      F1528   1.357       .  S
C1522      C1523   1.403       .  A
C1522      F1527   1.358       .  S
C1523      C1524   1.404       .  A
C1524      F1525   1.358       .  S
C1529      C1530   1.413       .  A
C1529      C1534   1.401       .  A
C1529      F1536   1.358       .  S
C1530      C1531   1.416       .  A
C1531      C1532   1.412       .  A
C1531      F1538   1.358       .  S
C1532      C1533   1.409       .  A
C1532      F1537   1.357       .  S
C1533      C1534   1.408       .  A
C1534      F1535   1.358       .  S
C1539      C1540   1.411       .  A
C1539      C1544   1.408       .  A
C1539      F1546   1.358       .  S
C1540      C1541   1.404       .  A
C1541      C1542   1.401       .  A
C1541      F1548   1.357       .  S
C1542      C1543   1.411       .  A
C1542      F1547   1.358       .  S
C1543      C1544   1.407       .  A
C1544      F1545   1.357       .  S
C1549      C1550   1.416       .  A
C1549      C1554   1.409       .  A
C1549      F1556   1.357       .  S
C1550      C1551   1.414       .  A
C1551      C1552   1.402       .  A
C1551      F1558   1.358       .  S
C1552      C1553   1.408       .  A
C1552      F1557   1.358       .  S
C1553      C1554   1.407       .  A
C1554      F1555   1.357       .  S
C1559      C1560   1.417       .  A
C1559      C1564   1.410       .  A
C1559      F1566   1.357       .  S
C1560      C1561   1.412       .  A
C1561      C1562   1.402       .  A
C1561      F1568   1.358       .  S
C1562      C1563   1.413       .  A
C1562      F1567   1.358       .  S
C1563      C1564   1.408       .  A
C1564      F1565   1.357       .  S
C1569      C1570   1.408       .  A
C1569      C1574   1.410       .  A
C1569      F1576   1.357       .  S
C1570      C1571   1.413       .  A
C1571      C1572   1.403       .  A
C1571      F1578   1.358       .  S
C1572      C1573   1.404       .  A
C1572      F1577   1.358       .  S
C1573      C1574   1.413       .  A
C1574      F1575   1.358       .  S
C1579      C1580   1.408       .  A
C1579      C1584   1.413       .  A
C1579      F1586   1.357       .  S
C1580      C1581   1.407       .  A
C1581      C1582   1.403       .  A
C1581      F1588   1.358       .  S
C1582      C1583   1.414       .  A
C1582      F1587   1.357       .  S
C1583      C1584   1.418       .  A
C1584      F1585   1.358       .  S
C1589      C1590   1.421       .  A
C1589      C1594   1.402       .  A
C1589      F1596   1.358       .  S
C1590      C1591   1.403       .  A
C1591      C1592   1.409       .  A
C1591      F1598   1.357       .  S
C1592      C1593   1.420       .  A
C1592      F1597   1.358       .  S
C1593      C1594   1.396       .  A
C1594      F1595   1.358       .  S
C1599      C1600   1.402       .  A
C1599      C1604   1.400       .  A
C1599      F1606   1.358       .  S
C1600      C1601   1.412       .  A
C1601      C1602   1.406       .  A
C1601      F1608   1.358       .  S
C1602      C1603   1.407       .  A
C1602      F1607   1.357       .  S
C1603      C1604   1.415       .  A
C1604      F1605   1.358       .  S
C1609      C1610   1.413       .  A
C1609      C1614   1.411       .  A
C1609      F1616   1.357   1_554  S
C1610      C1611   1.403       .  A
C1611      C1612   1.400       .  A
C1611      F1618   1.358       .  S
C1612      C1613   1.413       .  A
C1612      F1617   1.358       .  S
C1613      C1614   1.408       .  A
C1614      F1615   1.357       .  S
C1619      C1620   1.406       .  A
C1619      C1624   1.407       .  A
C1619      F1626   1.358       .  S
C1620      C1621   1.410       .  A
C1621      C1622   1.402       .  A
C1621      F1628   1.358       .  S
C1622      C1623   1.405       .  A
C1622      F1627   1.357       .  S
C1623      C1624   1.411       .  A
C1624      F1625   1.357       .  S
C1629      C1630   1.416       .  A
C1629      C1634   1.401       .  A
C1629      F1636   1.358       .  S
C1630      C1631   1.411       .  A
C1631      C1632   1.411   1_545  A
C1631      F1638   1.355       .  S
C1632      C1633   1.411       .  A
C1632      F1637   1.357       .  S
C1633      C1634   1.403   1_565  A
C1634      F1635   1.357   1_545  S
C1639      C1640   1.403       .  A
C1639      C1644   1.401   1_556  A
C1639      F1646   1.358       .  S
C1640      C1641   1.408       .  A
C1641      C1642   1.407   1_556  A
C1641      F1648   1.358       .  S
C1642      C1643   1.413       .  A
C1642      F1647   1.357       .  S
C1643      C1644   1.417       .  A
C1644      F1645   1.358       .  S
C1649      C1650   1.413       .  A
C1649      C1654   1.403       .  A
C1649      F1656   1.358       .  S
C1650      C1651   1.417       .  A
C1651      C1652   1.412       .  A
C1651      F1658   1.358   1_565  S
C1652      C1653   1.407       .  A
C1652      F1657   1.358       .  S
C1653      C1654   1.408       .  A
C1654      F1655   1.358       .  S
C1659      C1660   1.419   1_455  A
C1659      C1664   1.410       .  A
C1659      F1666   1.358       .  S
C1660      C1661   1.403       .  A
C1661      C1662   1.405       .  A
C1661      F1668   1.357       .  S
C1662      C1663   1.412   1_655  A
C1662      F1667   1.358       .  S
C1663      C1664   1.400       .  A
C1664      F1665   1.357       .  S
C1669      C1670   1.410       .  A
C1669      C1674   1.405   1_655  A
C1669      F1676   1.358       .  S
C1670      C1671   1.403   1_655  A
C1671      C1672   1.400       .  A
C1671      F1678   1.357       .  S
C1672      C1673   1.410       .  A
C1672      F1677   1.358       .  S
C1673      C1674   1.406       .  A
C1674      F1675   1.357       .  S
C1679      C1680   1.403       .  A
C1679      C1684   1.399       .  A
C1679      F1686   1.358       .  S
C1680      C1681   1.411       .  A
C1681      C1682   1.407       .  A
C1681      F1688   1.358       .  S
C1682      C1683   1.407       .  A
C1682      F1687   1.358       .  S
C1683      C1684   1.409       .  A
C1684      F1685   1.357       .  S
C1689      C1690   1.416       .  A
C1689      C1694   1.412   1_455  A
C1689      F1696   1.358       .  S
C1690      C1691   1.411   1_455  A
C1691      C1692   1.397       .  A
C1691      F1698   1.357       .  S
C1692      C1693   1.407       .  A
C1692      F1697   1.359       .  S
C1693      C1694   1.409       .  A
C1694      F1695   1.357       .  S
C1699      C1700   1.413       .  A
C1699      C1704   1.406       .  A
C1699      F1706   1.358       .  S
C1700      C1701   1.406       .  A
C1701      C1702   1.405       .  A
C1701      F1708   1.358       .  S
C1702      C1703   1.412       .  A
C1702      F1707   1.358       .  S
C1703      C1704   1.405       .  A
C1704      F1705   1.357       .  S
C1709      C1710   1.416       .  A
C1709      C1714   1.407       .  A
C1709      F1716   1.355       .  S
C1710      C1711   1.413       .  A
C1711      C1712   1.398       .  A
C1711      F1718   1.358       .  S
C1712      C1713   1.407       .  A
C1712      F1717   1.359       .  S
C1713      C1714   1.403       .  A
C1714      F1715   1.357       .  S
C1719      C1720   1.410       .  A
C1719      C1724   1.401       .  A
C1719      F1726   1.358       .  S
C1720      C1721   1.399       .  A
C1721      C1722   1.409       .  A
C1721      F1728   1.357       .  S
C1722      C1723   1.417       .  A
C1722      F1727   1.358       .  S
C1723      C1724   1.402       .  A
C1724      F1725   1.356       .  S
C1729      C1730   1.418       .  A
C1729      C1734   1.413       .  A
C1729      F1736   1.358       .  S
C1730      C1731   1.404       .  A
C1731      C1732   1.406       .  A
C1731      F1738   1.358       .  S
C1732      C1733   1.420   1_565  A
C1732      F1737   1.358   1_565  S
C1733      C1734   1.407   1_545  A
C1734      F1735   1.357       .  S
C1739      C1740   1.406       .  A
C1739      C1744   1.408       .  A
C1739      F1746   1.357       .  S
C1740      C1741   1.414       .  A
C1741      C1742   1.408       .  A
C1741      F1748   1.358       .  S
C1742      C1743   1.408       .  A
C1742      F1747   1.358       .  S
C1743      C1744   1.412       .  A
C1744      F1745   1.357       .  S
C1749      C1750   1.415       .  A
C1749      C1754   1.398       .  A
C1749      F1756   1.355       .  S
C1750      C1751   1.404       .  A
C1751      C1752   1.403       .  A
C1751      F1758   1.357       .  S
C1752      C1753   1.415       .  A
C1752      F1757   1.359       .  S
C1753      C1754   1.399       .  A
C1754      F1755   1.355       .  S
C1759      C1760   1.400       .  A
C1759      C1764   1.403       .  A
C1759      F1766   1.358       .  S
C1760      C1761   1.410       .  A
C1761      C1762   1.402       .  A
C1761      F1768   1.358       .  S
C1762      C1763   1.407       .  A
C1762      F1767   1.358   1_565  S
C1763      C1764   1.420       .  A
C1764      F1765   1.358       .  S
C1769      C1770   1.408       .  A
C1769      C1774   1.401       .  A
C1769      F1776   1.354       .  S
C1770      C1771   1.415       .  A
C1771      C1772   1.412       .  A
C1771      F1778   1.358       .  S
C1772      C1773   1.409       .  A
C1772      F1777   1.358       .  S
C1773      C1774   1.407       .  A
C1774      F1775   1.358       .  S
C1779      C1780   1.402       .  A
C1779      C1784   1.410       .  A
C1779      F1786   1.357       .  S
C1780      C1781   1.414       .  A
C1781      C1782   1.407       .  A
C1781      F1788   1.356       .  S
C1782      C1783   1.402       .  A
C1782      F1787   1.358       .  S
C1783      C1784   1.416       .  A
C1784      F1785   1.358       .  S
C1789      C1790   1.410   1_554  A
C1789      C1794   1.403       .  A
C1789      F1796   1.356       .  S
C1790      C1791   1.416       .  A
C1791      C1792   1.408   1_556  A
C1791      F1798   1.356       .  S
C1792      C1793   1.405       .  A
C1792      F1797   1.357       .  S
C1793      C1794   1.411       .  A
C1794      F1795   1.358       .  S
C1799      C1800   1.411       .  A
C1799      C1804   1.398       .  A
C1799      F1806   1.355       .  S
C1800      C1801   1.414       .  A
C1801      C1802   1.413       .  A
C1801      F1808   1.357       .  S
C1802      C1803   1.411       .  A
C1802      F1807   1.358       .  S
C1803      C1804   1.404       .  A
C1804      F1805   1.358       .  S
C1809      C1810   1.409       .  A
C1809      C1814   1.398       .  A
C1809      F1816   1.358       .  S
C1810      C1811   1.403       .  A
C1811      C1812   1.406       .  A
C1811      F1818   1.357       .  S
C1812      C1813   1.419       .  A
C1812      F1817   1.358       .  S
C1813      C1814   1.407       .  A
C1814      F1815   1.357       .  S
C1819      C1820   1.412       .  A
C1819      C1824   1.402       .  A
C1819      F1826   1.358       .  S
C1820      C1821   1.407       .  A
C1821      C1822   1.406       .  A
C1821      F1828   1.357       .  S
C1822      C1823   1.412   1_556  A
C1822      F1827   1.358       .  S
C1823      C1824   1.407   1_554  A
C1824      F1825   1.358   1_556  S
C1829      C1830   1.411       .  A
C1829      C1834   1.407       .  A
C1829      F1836   1.358       .  S
C1830      C1831   1.407       .  A
C1831      C1832   1.408       .  A
C1831      F1838   1.358       .  S
C1832      C1833   1.417       .  A
C1832      F1837   1.358       .  S
C1833      C1834   1.407       .  A
C1834      F1835   1.353       .  S
C1839      C1840   1.420       .  A
C1839      C1844   1.403       .  A
C1839      F1846   1.358       .  S
C1840      C1841   1.405       .  A
C1841      C1842   1.399       .  A
C1841      F1848   1.358       .  S
C1842      C1843   1.411       .  A
C1842      F1847   1.358       .  S
C1843      C1844   1.400       .  A
C1844      F1845   1.357       .  S
