geometry optimzed in LAMMPS
_audit_creation_date              2020-11-30 
_audit_creation_method            'lammps2cif' 
_symmetry_space_group_name_H-M    'P1' 
_symmetry_Int_Tables_number       1 
_symmetry_cell_setting            triclinic 
loop_ 
_symmetry_equiv_pos_as_xyz 
  x,y,z 
_cell_length_a                    58.91986943 
_cell_length_b                    58.95045990128654 
_cell_length_c                    58.91240621206627 
_cell_angle_alpha                 90.00393791852157 
_cell_angle_beta                  89.99879603055017 
_cell_angle_gamma                 90.0569605116735 
loop_ 
_atom_site_label 
_atom_site_type_symbol 
_atom_site_fract_x 
_atom_site_fract_y 
_atom_site_fract_z 
_atom_site_charge 
C1          C  0.54575857  0.90166356  0.75181482     0.03600
C2          C  0.52395098  0.89571092  0.74427325    -0.12500
C3          C  0.51924315  0.87345359  0.73763687     0.01100
C4          C  0.53627522  0.85706912  0.73844201    -0.11000
C5          C  0.55801007  0.86263831  0.74636906     0.03600
C6          C  0.56271490  0.88496743  0.75313351    -0.10500
H7          H  0.51068184  0.90842184  0.74341840     0.09200
H8          H  0.53261522  0.83994437  0.73277314     0.06700
H9          H  0.57952442  0.88938329  0.75918444     0.06600
C10         C  0.54774900  0.06674252  0.78851062     0.03600
C11         C  0.56541836  0.08272161  0.78943815    -0.12500
C12         C  0.56061424  0.10540963  0.79475961     0.01100
C13         C  0.53816182  0.11208735  0.79904228    -0.11000
C14         C  0.52053318  0.09617183  0.79827396     0.03600
C15         C  0.52545340  0.07351535  0.79337872    -0.10500
H16         H  0.58268336  0.07763643  0.78568644     0.09200
H17         H  0.53437049  0.12973260  0.80253769     0.06700
H18         H  0.51177515  0.06121065  0.79271101     0.06600
C19         C  0.89629148  0.71896403  0.57558635     0.03600
C20         C  0.87895283  0.71530731  0.59165973    -0.12500
C21         C  0.85664680  0.71098734  0.58434560     0.01100
C22         C  0.85185493  0.70974827  0.56109530    -0.11000
C23         C  0.86908877  0.71257632  0.54512190     0.03600
C24         C  0.89105387  0.71779075  0.55233916    -0.10500
H25         H  0.88280961  0.71552141  0.60963973     0.09200
H26         H  0.83475493  0.70595572  0.55544646     0.06700
H27         H  0.90427373  0.72020765  0.53976739     0.06600
C28         C  0.06198155  0.75020910  0.57401711     0.03600
C29         C  0.07837453  0.75434574  0.59078633    -0.12500
C30         C  0.10080798  0.75923125  0.58456394     0.01100
C31         C  0.10664759  0.76081166  0.56154060    -0.11000
C32         C  0.09040306  0.75677389  0.54464887     0.03600
C33         C  0.06809012  0.75151345  0.55100977    -0.10500
H34         H  0.07371903  0.75374215  0.60857513     0.09200
H35         H  0.12385673  0.76526710  0.55677698     0.06700
H36         H  0.05538510  0.74861272  0.53802010     0.06600
C37         C  0.56250443  0.71704545  0.42661314     0.03600
C38         C  0.57962368  0.71408464  0.41026392    -0.12500
C39         C  0.60190199  0.70917998  0.41705891     0.01100
C40         C  0.60687127  0.70629760  0.44014279    -0.11000
C41         C  0.58982492  0.70864451  0.45650519     0.03600
C42         C  0.56779539  0.71435691  0.44973953    -0.10500
H43         H  0.57566261  0.71562978  0.39236664     0.09200
H44         H  0.62399378  0.70205745  0.44537225     0.06700
H45         H  0.55464683  0.71626075  0.46247134     0.06600
C46         C  0.39827548  0.75394885  0.42569177     0.03600
C47         C  0.39260240  0.75591629  0.44878958    -0.12500
C48         C  0.37081542  0.76252061  0.45533476     0.01100
C49         C  0.35430406  0.76657428  0.43882094    -0.11000
C50         C  0.35966535  0.76477154  0.41568210     0.03600
C51         C  0.38172708  0.75861872  0.40913308    -0.10500
H52         H  0.40531711  0.75280409  0.46172053     0.09200
H53         H  0.33734624  0.77150670  0.44397602     0.06700
H54         H  0.38605829  0.75778003  0.39127561     0.06600
C55         C  0.70876637  0.56047205  0.91889796     0.03600
C56         C  0.70577571  0.53740968  0.91356653    -0.12500
C57         C  0.70192075  0.53062501  0.89114560     0.01100
C58         C  0.70195630  0.54679519  0.87380079    -0.11000
C59         C  0.70609886  0.56971825  0.87869818     0.03600
C60         C  0.70908696  0.57655960  0.90130489    -0.10500
H61         H  0.70610131  0.52474563  0.92689376     0.09200
H62         H  0.69879426  0.54152569  0.85644778     0.06700
H63         H  0.71168643  0.59434032  0.90515840     0.06600
C64         C  0.75352311  0.56158676  0.08059984     0.03600
C65         C  0.75471213  0.53852285  0.08660131    -0.12500
C66         C  0.75992647  0.53212143  0.10886168     0.01100
C67         C  0.76340555  0.54881945  0.12533838    -0.11000
C68         C  0.76149132  0.57181789  0.11973026     0.03600
C69         C  0.75647471  0.57823995  0.09739708    -0.10500
H70         H  0.75219007  0.52555623  0.07379642     0.09200
H71         H  0.76764174  0.54392294  0.14256450     0.06700
H72         H  0.75538578  0.59606869  0.09303703     0.06600
Zn73       Zn  0.62084037  0.29553998  0.83629834     1.49700
Zn74       Zn  0.63868527  0.34067668  0.81388724     1.49400
Zn75       Zn  0.66474710  0.31966276  0.85603825     1.49100
Zn76       Zn  0.66774161  0.29470735  0.80758369     1.49500
O77         O  0.64814347  0.31251343  0.82828752    -1.83600
O78         O  0.59226013  0.31006490  0.82434307    -0.74300
O79         O  0.64986718  0.36796058  0.83106359    -0.74100
O80         O  0.64829022  0.30878179  0.88375544    -0.73600
O81         O  0.60460646  0.34293126  0.81089648    -0.74300
O82         O  0.61704089  0.29277148  0.87014635    -0.73900
O83         O  0.66937246  0.35325039  0.85973538    -0.74500
O84         O  0.69907164  0.28965001  0.82171099    -0.73800
O85         O  0.65176644  0.34248812  0.78266269    -0.74600
O86         O  0.69538107  0.30523298  0.85585254    -0.74000
O87         O  0.67173433  0.31116383  0.77726432    -0.74500
O88         O  0.65367247  0.26355815  0.80172160    -0.74400
O89         O  0.62272059  0.26439063  0.82330893    -0.74200
C90         C  0.58844037  0.32931097  0.81535304     0.77600
C91         C  0.66199647  0.37030903  0.84878491     0.78100
C92         C  0.62942032  0.29874261  0.88679317     0.77100
C93         C  0.70709197  0.29448830  0.84124807     0.77500
C94         C  0.66418250  0.33016032  0.77007088     0.78600
C95         C  0.63602056  0.25397596  0.80984649     0.77600
Zn96       Zn  0.31273637  0.83529193  0.69127739     1.49700
Zn97       Zn  0.33208021  0.79221822  0.66632065     1.49400
Zn98       Zn  0.28556947  0.78831124  0.69466602     1.49100
Zn99       Zn  0.28846738  0.81627856  0.64721955     1.49500
O100        O  0.30444808  0.80791004  0.67495843    -1.83600
O101        O  0.34626460  0.83753538  0.69646203    -0.74300
O102        O  0.33228394  0.76149229  0.67960102    -0.74100
O103        O  0.27910654  0.80354103  0.72505716    -0.73600
O104        O  0.35974340  0.80781471  0.67795339    -0.74300
O105        O  0.29799195  0.83598480  0.72166367    -0.73900
O106        O  0.30103302  0.75787518  0.70020480    -0.74500
O107        O  0.25785051  0.80183622  0.64736301    -0.73800
O108        O  0.33541829  0.78832964  0.63268591    -0.74600
O109        O  0.25545486  0.78191340  0.67942286    -0.74000
O110        O  0.30449359  0.80477371  0.61922091    -0.74500
O111        O  0.28496731  0.85031171  0.64409020    -0.74400
O112        O  0.30291081  0.86311668  0.67456503    -0.74200
C113        C  0.36286862  0.82534432  0.69006038     0.77600
C114        C  0.31953405  0.74978809  0.69238773     0.78100
C115        C  0.28547620  0.82260446  0.73307571     0.77100
C116        C  0.24717894  0.78844578  0.66054306     0.77500
C117        C  0.32287473  0.79392866  0.61605505     0.78600
C118        C  0.29183867  0.86670542  0.65641365     0.77600
C119        C  0.05424269  0.56653831  0.26643528     0.03600
C120        C  0.03190840  0.57188802  0.27288133    -0.12500
C121        C  0.02670975  0.59338302  0.28159852     0.01100
C122        C  0.04399765  0.60958937  0.28362251    -0.11000
C123        C  0.06641021  0.60426038  0.27761500     0.03600
C124        C  0.07153298  0.58263211  0.26927299    -0.10500
H125        H  0.01858396  0.55932446  0.27105846     0.09200
H126        H  0.03998578  0.62642973  0.28981039     0.06700
H127        H  0.08885985  0.57837852  0.26484048     0.06600
C128        C  0.05310287  0.40521759  0.21869930     0.03600
C129        C  0.06954550  0.38827010  0.21526339    -0.12500
C130        C  0.06275441  0.36605180  0.20988307     0.01100
C131        C  0.03958597  0.36062145  0.20934591    -0.11000
C132        C  0.02319683  0.37725041  0.21326190     0.03600
C133        C  0.02998839  0.39956872  0.21732275    -0.10500
H134        H  0.08742995  0.39234704  0.21667913     0.09200
H135        H  0.03427204  0.34333830  0.20587310     0.06700
H136        H  0.01719353  0.41249984  0.22006970     0.06600
Zn137      Zn  0.79181975  0.65568218  0.35259257     1.49700
Zn138      Zn  0.78767598  0.68241476  0.30558446     1.49400
Zn139      Zn  0.83524687  0.68117008  0.33302095     1.49100
Zn140      Zn  0.81690306  0.63620828  0.30971863     1.49500
O141        O  0.80789059  0.66405415  0.32506551    -1.83600
O142        O  0.76080262  0.66925204  0.35327049    -0.74300
O143        O  0.80217335  0.71280361  0.29842865    -0.74100
O144        O  0.83752532  0.68639802  0.36687036    -0.73600
O145        O  0.75726770  0.68853251  0.32104753    -0.74300
O146        O  0.80788380  0.66746763  0.37991981    -0.73900
O147        O  0.83452771  0.71152545  0.31782623    -0.74500
O148        O  0.85075246  0.63374598  0.30649096    -0.73800
O149        O  0.78203689  0.66639222  0.27569520    -0.74600
O150        O  0.86386852  0.66503141  0.32293210    -0.74000
O151        O  0.80307549  0.63528219  0.27884486    -0.74500
O152        O  0.80686291  0.60823151  0.32652806    -0.74400
O153        O  0.78900203  0.62198897  0.35642332    -0.74200
C154        C  0.74949206  0.68219198  0.34023281     0.77600
C155        C  0.82071837  0.72190429  0.30484843     0.78100
C156        C  0.82533884  0.67960745  0.38339965     0.77100
C157        C  0.86718148  0.64636566  0.31256142     0.77500
C158        C  0.78966587  0.64788683  0.26754065     0.78600
C159        C  0.79604441  0.60515547  0.34497121     0.77600
C160        C  0.89491413  0.26300366  0.92720386     0.03600
C161        C  0.87852112  0.26661625  0.91022960    -0.12500
C162        C  0.85634900  0.27302175  0.91621097     0.01100
C163        C  0.85052540  0.27524253  0.93920444    -0.11000
C164        C  0.86658069  0.27105280  0.95618284     0.03600
C165        C  0.88868596  0.26496248  0.95013004    -0.10500
H166        H  0.88304367  0.26473149  0.89250025     0.09200
H167        H  0.83338796  0.28002102  0.94390005     0.06700
H168        H  0.90105848  0.26160576  0.96332337     0.06600
C169        C  0.05205001  0.20185112  0.93207362     0.03600
C170        C  0.06882494  0.19815114  0.91548910    -0.12500
C171        C  0.09098264  0.19225037  0.92196507     0.01100
C172        C  0.09638469  0.19047401  0.94504348    -0.11000
C173        C  0.07996084  0.19448525  0.96165471     0.03600
C174        C  0.05786270  0.20029063  0.95517229    -0.10500
H175        H  0.06464971  0.19974615  0.89765248     0.09200
H176        H  0.11355684  0.18623042  0.95012172     0.06700
H177        H  0.04519925  0.20354171  0.96810943     0.06600
Zn178      Zn  0.82968044  0.29600457  0.16979268     1.49700
Zn179      Zn  0.78652467  0.31999156  0.14925239     1.49400
Zn180      Zn  0.78222124  0.29377607  0.19727244     1.49100
Zn181      Zn  0.80999699  0.34064815  0.19227255     1.49500
O182        O  0.80196130  0.31239259  0.17733521    -1.83600
O183        O  0.83380924  0.29224544  0.13605315    -0.74300
O184        O  0.75570274  0.30654104  0.14934023    -0.74100
O185        O  0.79672193  0.26277899  0.20276779    -0.73600
O186        O  0.80303447  0.30829143  0.12198301    -0.74300
O187        O  0.82908821  0.26515486  0.18359512    -0.73900
O188        O  0.75116092  0.28911565  0.18238094    -0.74500
O189        O  0.79661192  0.34121937  0.22310513    -0.73800
O190        O  0.78288310  0.35362517  0.14486207    -0.74600
O191        O  0.77788111  0.30910850  0.22824708    -0.74000
O192        O  0.79897776  0.36825615  0.17547363    -0.74500
O193        O  0.84368528  0.34374097  0.19621107    -0.74400
O194        O  0.85732422  0.31201872  0.18165054    -0.74200
C195        C  0.82171452  0.29787903  0.11910742     0.77600
C196        C  0.74347149  0.29531347  0.16307130     0.78100
C197        C  0.81541162  0.25409263  0.19607960     0.77100
C198        C  0.78494802  0.32820850  0.23568820     0.77500
C199        C  0.78869267  0.37072313  0.15664576     0.78600
C200        C  0.86040321  0.33098744  0.19150911     0.77600
C201        C  0.39801245  0.20124322  0.07479625     0.03600
C202        C  0.39128465  0.20049121  0.05189974    -0.12500
C203        C  0.36884194  0.19532845  0.04606799     0.01100
C204        C  0.35277504  0.19202292  0.06321662    -0.11000
C205        C  0.35909727  0.19329313  0.08609231     0.03600
C206        C  0.38168612  0.19801114  0.09191088    -0.10500
H207        H  0.40361518  0.20352756  0.03858824     0.09200
H208        H  0.33528467  0.18841957  0.05874710     0.06700
H209        H  0.38656032  0.19885362  0.10962231     0.06600
C210        C  0.55959156  0.24986382  0.07639044     0.03600
C211        C  0.57684314  0.24992429  0.09286773    -0.12500
C212        C  0.59937583  0.25451327  0.08660594     0.01100
C213        C  0.60450091  0.25955264  0.06390050    -0.11000
C214        C  0.58748229  0.25921766  0.04739707     0.03600
C215        C  0.56517975  0.25399625  0.05357199    -0.10500
H216        H  0.57275134  0.24658480  0.11047758     0.09200
H217        H  0.62173504  0.26383109  0.05908781     0.06700
H218        H  0.55211029  0.25347605  0.04063583     0.06600
C219        C  0.25691086  0.91155522  0.91988419     0.03600
C220        C  0.25767901  0.89538443  0.90235556    -0.12500
C221        C  0.26142401  0.90235093  0.87987060     0.01100
C222        C  0.26414671  0.92546800  0.87493708    -0.11000
C223        C  0.26304086  0.94163500  0.89227947     0.03600
C224        C  0.25886627  0.93469878  0.91455192    -0.10500
H225        H  0.25610982  0.87748940  0.90625322     0.09200
H226        H  0.26748064  0.93083711  0.85765280     0.06700
H227        H  0.25790431  0.94731810  0.92790693     0.06600
C228        C  0.22166307  0.91271242  0.08471823     0.03600
C229        C  0.22049585  0.89562860  0.10133295    -0.12500
C230        C  0.21650481  0.90131633  0.12411338     0.01100
C231        C  0.21298721  0.92408013  0.13006627    -0.11000
C232        C  0.21502905  0.94134597  0.11390873     0.03600
C233        C  0.21960298  0.93557574  0.09127657    -0.10500
H234        H  0.22244994  0.87799364  0.09653462     0.09200
H235        H  0.20828645  0.92828286  0.14734304     0.06700
H236        H  0.22099517  0.94886858  0.07863603     0.06600
Zn237      Zn  0.27132996  0.14508167  0.81951244     1.49700
Zn238      Zn  0.28932311  0.19075932  0.84249251     1.49400
Zn239      Zn  0.31777998  0.14475009  0.84692301     1.49100
Zn240      Zn  0.31528937  0.16954479  0.79928663     1.49500
O241        O  0.29838416  0.16267291  0.82705416    -1.83600
O242        O  0.24302500  0.16031407  0.83066601    -0.74300
O243        O  0.30342110  0.19275725  0.87381002    -0.74100
O244        O  0.30503365  0.11373695  0.85235493    -0.73600
O245        O  0.25522804  0.19204365  0.84686045    -0.74300
O246        O  0.27227329  0.11406367  0.83381379    -0.73900
O247        O  0.32169217  0.15994709  0.87689900    -0.74500
O248        O  0.34721943  0.15691882  0.80007786    -0.73800
O249        O  0.29988882  0.21804035  0.82466439    -0.74600
O250        O  0.34884860  0.14043273  0.83387110    -0.74000
O251        O  0.31783161  0.20303350  0.79492767    -0.74500
O252        O  0.29978602  0.15682115  0.77187917    -0.74400
O253        O  0.26887132  0.14038388  0.78586899    -0.74200
C254        C  0.23915261  0.17859356  0.84143671     0.77600
C255        C  0.31540585  0.17883786  0.88518578     0.78100
C256        C  0.28693238  0.10387747  0.84594943     0.77100
C257        C  0.35813442  0.14606352  0.81522524     0.77500
C258        C  0.31125716  0.22007494  0.80637619     0.78600
C259        C  0.28157235  0.14555008  0.76918713     0.77600
C260        C  0.19525402  0.05710258  0.42536072     0.03600
C261        C  0.19356815  0.03420013  0.41897116    -0.12500
C262        C  0.18762175  0.02830178  0.39676714     0.01100
C263        C  0.18412386  0.04532140  0.38061252    -0.11000
C264        C  0.18650726  0.06821431  0.38659431     0.03600
C265        C  0.19208638  0.07408813  0.40894819    -0.10500
H266        H  0.19675728  0.02094042  0.43132144     0.09200
H267        H  0.17993887  0.04073691  0.36328246     0.06700
H268        H  0.19394800  0.09180292  0.41352914     0.06600
C269        C  0.25508750  0.05776304  0.58251384     0.03600
C270        C  0.25723739  0.07444706  0.59936536    -0.12500
C271        C  0.26245527  0.06825019  0.62171177     0.01100
C272        C  0.26625615  0.04540086  0.62709720    -0.11000
C273        C  0.26410836  0.02869710  0.61040155     0.03600
C274        C  0.25802508  0.03483115  0.58832386    -0.10500
H275        H  0.25468051  0.09218151  0.59519209     0.09200
H276        H  0.27063809  0.04060556  0.64431925     0.06700
H277        H  0.25574300  0.02172164  0.57561463     0.06600
Zn278      Zn  0.16060832  0.18315511  0.16114102     1.49700
Zn279      Zn  0.13747269  0.16647227  0.20704155     1.49400
Zn280      Zn  0.13386120  0.13564767  0.16235244     1.49100
Zn281      Zn  0.18116504  0.14116962  0.18807031     1.49500
O282        O  0.15319189  0.15660320  0.17958731    -1.83600
O283        O  0.14898459  0.21176851  0.17556327    -0.74300
O284        O  0.10673200  0.15213701  0.20877658    -0.74100
O285        O  0.12581317  0.14920370  0.13206023    -0.73600
O286        O  0.13276741  0.20030660  0.20760295    -0.74300
O287        O  0.14577330  0.18116387  0.13050772    -0.73900
O288        O  0.10435371  0.12970046  0.17856399    -0.74500
O289        O  0.18291502  0.11024419  0.17404754    -0.73800
O290        O  0.15426867  0.15700830  0.23518942    -0.74600
O291        O  0.14970704  0.10569954  0.15664253    -0.74000
O292        O  0.18382984  0.13782710  0.22184091    -0.74500
O293        O  0.20844956  0.15781490  0.17685528    -0.74400
O294        O  0.19437344  0.18630226  0.15663778    -0.74200
C295        C  0.13828524  0.21601348  0.19383412     0.77600
C296        C  0.09593796  0.13784497  0.19671168     0.78100
C297        C  0.13192311  0.16712687  0.12167851     0.77100
C298        C  0.16933189  0.09848255  0.16209943     0.77500
C299        C  0.17212097  0.14529922  0.23837963     0.78600
C300        C  0.21119792  0.17507928  0.16423846     0.77600
C301        C  0.90796983  0.90807135  0.27148820     0.03600
C302        C  0.89074899  0.89156526  0.27251006    -0.12500
C303        C  0.89622782  0.86905604  0.27790232     0.01100
C304        C  0.91892843  0.86293393  0.28140812    -0.11000
C305        C  0.93611812  0.87916683  0.27973207     0.03600
C306        C  0.93065489  0.90166504  0.27477782    -0.10500
H307        H  0.87318893  0.89635834  0.26989421     0.09200
H308        H  0.92319896  0.84553236  0.28557057     0.06700
H309        H  0.94403510  0.91428629  0.27396563     0.06600
C310        C  0.90678823  0.07571560  0.25220298     0.03600
C311        C  0.92920888  0.08127087  0.24649162    -0.12500
C312        C  0.93490831  0.10338492  0.24026775     0.01100
C313        C  0.91812350  0.12003267  0.23934564    -0.11000
C314        C  0.89565521  0.11494761  0.24546938     0.03600
C315        C  0.88992806  0.09256860  0.25152488    -0.10500
H316        H  0.94223874  0.06829249  0.24665878     0.09200
H317        H  0.92260599  0.13702838  0.23392911     0.06700
H318        H  0.87254636  0.08831824  0.25577050     0.06600
Zn319      Zn  0.12569232  0.79326671  0.33233927     1.49700
Zn320      Zn  0.14605400  0.83719697  0.30957339     1.49400
Zn321      Zn  0.16925337  0.81649450  0.35359320     1.49100
Zn322      Zn  0.17347411  0.79054452  0.30554672     1.49500
O323        O  0.15377111  0.80922839  0.32521272    -1.83600
O324        O  0.09810606  0.80953402  0.32041171    -0.74300
O325        O  0.15641852  0.86438195  0.32699663    -0.74100
O326        O  0.15259203  0.80375875  0.38059083    -0.73600
O327        O  0.11261919  0.84002160  0.30384302    -0.74300
O328        O  0.12176463  0.78819444  0.36590969    -0.73900
O329        O  0.17261926  0.85033994  0.35790093    -0.74500
O330        O  0.20412371  0.78562162  0.32034182    -0.73800
O331        O  0.16076234  0.83847730  0.27925315    -0.74600
O332        O  0.20049948  0.80314192  0.35363262    -0.74000
O333        O  0.17888716  0.80585555  0.27509337    -0.74500
O334        O  0.15903499  0.75980617  0.29953618    -0.74400
O335        O  0.12615209  0.76291131  0.31771259    -0.74200
C336        C  0.09567649  0.82765748  0.30894541     0.77600
C337        C  0.16689770  0.86718520  0.34564102     0.78100
C338        C  0.13399549  0.79299116  0.38303047     0.77100
C339        C  0.21214204  0.79171952  0.33948543     0.77500
C340        C  0.17266876  0.82506622  0.26734670     0.78600
C341        C  0.13980552  0.75173596  0.30533568     0.77600
C342        C  0.40121949  0.39964132  0.75731683     0.03600
C343        C  0.38466280  0.38255708  0.75670615    -0.12500
C344        C  0.39038554  0.36021185  0.76251525     0.01100
C345        C  0.41253706  0.35523379  0.76969057    -0.11000
C346        C  0.42918686  0.37211109  0.77019024     0.03600
C347        C  0.42346840  0.39435813  0.76411913    -0.10500
H348        H  0.36748066  0.38659434  0.75153828     0.09200
H349        H  0.41688278  0.33810283  0.77477211     0.06700
H350        H  0.43628762  0.40754682  0.76473704     0.06600
C351        C  0.40641779  0.56599884  0.73730576     0.03600
C352        C  0.42934493  0.57091702  0.73304690    -0.12500
C353        C  0.43616825  0.59318698  0.72859486     0.01100
C354        C  0.42017746  0.61063837  0.72888234    -0.11000
C355        C  0.39736181  0.60611017  0.73376025     0.03600
C356        C  0.39047230  0.58369524  0.73795989    -0.10500
H357        H  0.44174909  0.55734993  0.73258139     0.09200
H358        H  0.42550365  0.62780807  0.72494993     0.06700
H359        H  0.37277332  0.57997500  0.74132670     0.06600
C360        C  0.75758622  0.41614899  0.42246570     0.03600
C361        C  0.76127204  0.43859099  0.41526834    -0.12500
C362        C  0.76534636  0.44351444  0.39238579     0.01100
C363        C  0.76518693  0.42590936  0.37643263    -0.11000
C364        C  0.76074285  0.40351769  0.38319771     0.03600
C365        C  0.75731752  0.39861871  0.40624102    -0.10500
H366        H  0.76073572  0.45234846  0.42747061     0.09200
H367        H  0.76850722  0.42960933  0.35870814     0.06700
H368        H  0.75412457  0.38127619  0.41145815     0.06600
C369        C  0.70597992  0.41843490  0.58453568     0.03600
C370        C  0.70260782  0.44119299  0.59088283    -0.12500
C371        C  0.69715643  0.44688154  0.61327327     0.01100
C372        C  0.69655640  0.42992167  0.62985977    -0.11000
C373        C  0.70092939  0.40723316  0.62415332     0.03600
C374        C  0.70523188  0.40145253  0.60138540    -0.10500
H375        H  0.70379863  0.45453071  0.57827345     0.09200
H376        H  0.69257510  0.43438706  0.64727116     0.06700
H377        H  0.70808019  0.38386711  0.59686102     0.06600
Zn378      Zn  0.65707797  0.69469882  0.66175167     1.49700
Zn379      Zn  0.63646446  0.67332630  0.70695873     1.49400
Zn380      Zn  0.63123502  0.64724883  0.65946300     1.49100
Zn381      Zn  0.67965514  0.65052660  0.68397126     1.49500
O382        O  0.65111889  0.66641191  0.67799987    -1.83600
O383        O  0.64517294  0.72168967  0.67901154    -0.74300
O384        O  0.60531373  0.65976901  0.70842287    -0.74100
O385        O  0.62517043  0.66115410  0.62869145    -0.73600
O386        O  0.63301749  0.70690076  0.71157748    -0.74300
O387        O  0.64292822  0.69436669  0.63069922    -0.73900
O388        O  0.60161683  0.64192825  0.67546493    -0.74500
O389        O  0.67928176  0.61928677  0.67009265    -0.73800
O390        O  0.65361671  0.66001331  0.73313294    -0.74600
O391        O  0.64525719  0.61655309  0.65399627    -0.74000
O392        O  0.68473312  0.64553355  0.71742906    -0.74500
O393        O  0.70611564  0.66786453  0.67120736    -0.74400
O394        O  0.69051957  0.69892379  0.65650606    -0.74200
C395        C  0.63635131  0.72385043  0.69862471     0.77600
C396        C  0.59379515  0.64766503  0.69478616     0.78100
C397        C  0.63136231  0.67980815  0.61971032     0.77100
C398        C  0.66436033  0.60799630  0.65928336     0.77500
C399        C  0.67237302  0.64948637  0.73467130     0.78600
C400        C  0.70781677  0.68678585  0.66091653     0.77600
C401        C  0.66631821  0.50042411  0.63172337    -0.22000
C402        C  0.68409629  0.51621553  0.63144318     0.10000
C403        C  0.70608200  0.50925957  0.62505752     0.10400
C404        C  0.70978792  0.48654993  0.61892270    -0.16900
C405        C  0.69204167  0.47066246  0.61933588    -0.27300
C406        C  0.66996034  0.47771271  0.62565432     0.18700
C407        C  0.67928137  0.53989513  0.63822967     0.12700
C408        C  0.72560867  0.52575979  0.62494578    -0.11700
H409        H  0.72665477  0.48105935  0.61407304     0.13000
C410        C  0.64978742  0.46194953  0.62575209    -0.22500
H411        H  0.64944727  0.50590883  0.63660704     0.08600
C412        C  0.67189818  0.55619523  0.62234632     0.05000
C413        C  0.66689074  0.57826062  0.62978009    -0.19700
C414        C  0.66931838  0.58437862  0.65268649    -0.12000
C415        C  0.67647922  0.56788230  0.66864353     0.13700
C416        C  0.68152106  0.54588254  0.66112030    -0.22400
C417        C  0.66939642  0.55028524  0.59759662    -0.05500
H418        H  0.66134460  0.59089476  0.61762082     0.15200
C419        C  0.67813848  0.57246895  0.69379202    -0.15700
H420        H  0.68691935  0.53316205  0.67327268     0.09500
H421        H  0.63643620  0.46878239  0.61434781     0.07400
H422        H  0.64283461  0.46074341  0.64322923     0.08600
H423        H  0.65388770  0.44460261  0.61982262     0.07600
H424        H  0.72811612  0.53275077  0.64226552     0.02500
H425        H  0.72199391  0.53989027  0.61304204     0.03000
H426        H  0.74167730  0.51752911  0.61955402     0.06500
H427        H  0.66352338  0.56503491  0.58745141     0.05500
H428        H  0.65682411  0.53639221  0.59559791    -0.00300
H429        H  0.68597704  0.54466429  0.59065630     0.01200
H430        H  0.66735647  0.56013561  0.70312292     0.04800
H431        H  0.67233041  0.58962899  0.69871001     0.06800
H432        H  0.69600159  0.57037764  0.69940772     0.07700
C433        C  0.70757842  0.42034925  0.51996472    -0.22000
C434        C  0.72728775  0.40788459  0.51539163     0.10000
C435        C  0.73860951  0.39683476  0.53340138     0.10400
C436        C  0.73071062  0.39971565  0.55574436    -0.16900
C437        C  0.71140022  0.41290916  0.56045220    -0.27300
C438        C  0.69899309  0.42227206  0.54206130     0.18700
C439        C  0.73611402  0.40757012  0.49175867     0.12700
C440        C  0.75892892  0.38194500  0.52908684    -0.11700
H441        H  0.74011199  0.39223953  0.56966241     0.13000
C442        C  0.67636759  0.43388025  0.54490975    -0.22500
H443        H  0.69872606  0.42862714  0.50612030     0.08600
C444        C  0.72402791  0.39718037  0.47383772     0.05000
C445        C  0.73202301  0.39943407  0.45150225    -0.19700
C446        C  0.75201539  0.41150913  0.44663448    -0.12000
C447        C  0.76493146  0.42052938  0.46483434     0.13700
C448        C  0.75646318  0.41898648  0.48702671    -0.22400
C449        C  0.70273610  0.38367918  0.47819069    -0.05500
H450        H  0.72215542  0.39238381  0.43766697     0.15200
C451        C  0.78787809  0.43144248  0.46164961    -0.15700
H452        H  0.76582121  0.42685025  0.50079266     0.09500
H453        H  0.66370353  0.42576816  0.53353602     0.07400
H454        H  0.67794654  0.45206272  0.54024617     0.08600
H455        H  0.66955090  0.43254549  0.56238086     0.07600
H456        H  0.77308164  0.39206524  0.52191206     0.02500
H457        H  0.75427583  0.36827764  0.51697242     0.03000
H458        H  0.76511284  0.37385945  0.54494821     0.06500
H459        H  0.69605088  0.37590521  0.46236566     0.05500
H460        H  0.68926143  0.39474794  0.48522062    -0.00300
H461        H  0.70641717  0.36982344  0.49040565     0.01200
H462        H  0.78696354  0.44964771  0.46639629     0.04800
H463        H  0.79434271  0.43001847  0.44405374     0.06800
H464        H  0.80045700  0.42290522  0.47278130     0.07700
C465        C  0.53471353  0.64268111  0.72075420    -0.22000
C466        C  0.52806770  0.62149186  0.71229815     0.10000
C467        C  0.54309789  0.60880282  0.69875135     0.10400
C468        C  0.56439614  0.61786037  0.69348515    -0.16900
C469        C  0.57114823  0.63923035  0.70161823    -0.27300
C470        C  0.55618471  0.65172214  0.71574497     0.18700
C471        C  0.50479860  0.61341295  0.71671498     0.12700
C472        C  0.53670638  0.58564128  0.68998642    -0.11700
H473        H  0.57592838  0.60807911  0.68300774     0.13000
C474        C  0.56225896  0.67480286  0.72497455    -0.22500
H475        H  0.52288496  0.65227784  0.73107098     0.08600
C476        C  0.49848454  0.60397796  0.73778212     0.05000
C477        C  0.47607831  0.59656451  0.74090932    -0.19700
C478        C  0.46000955  0.59857246  0.72345473    -0.12000
C479        C  0.46655903  0.60754361  0.70217395     0.13700
C480        C  0.48886226  0.61506021  0.69917562    -0.22400
C481        C  0.51533579  0.60182095  0.75687656    -0.05500
H482        H  0.47088901  0.58976005  0.75719876     0.15200
C483        C  0.45062080  0.60918573  0.68221067    -0.15700
H484        H  0.49393552  0.62216544  0.68296882     0.09500
H485        H  0.57682161  0.67340246  0.73683164     0.07400
H486        H  0.54795240  0.68248479  0.73454725     0.08600
H487        H  0.56665440  0.68642271  0.71080503     0.07600
H488        H  0.52169455  0.58690829  0.67869035     0.02500
H489        H  0.53264100  0.57429172  0.70447097     0.03000
H490        H  0.55071836  0.57779630  0.68012373     0.06500
H491        H  0.50764051  0.59376726  0.77208901     0.05500
H492        H  0.52161131  0.61887105  0.76184777    -0.00300
H493        H  0.52989351  0.59124106  0.75132573     0.01200
H494        H  0.44833340  0.62726702  0.67746445     0.04800
H495        H  0.43370163  0.60170558  0.68560529     0.06800
H496        H  0.45798182  0.59993556  0.66753592     0.07700
C497        C  0.40403234  0.45835126  0.73177115    -0.22000
C498        C  0.39019316  0.47039648  0.74686866     0.10000
C499        C  0.37704030  0.45857244  0.76300127     0.10400
C500        C  0.38004030  0.43506090  0.76535324    -0.16900
C501        C  0.39539688  0.42327150  0.75145409    -0.27300
C502        C  0.40646056  0.43482220  0.73357352     0.18700
C503        C  0.39156196  0.49540389  0.74653180     0.12700
C504        C  0.35991854  0.47073277  0.77757887    -0.11700
H505        H  0.37103720  0.42599505  0.77859916     0.13000
C506        C  0.42088514  0.42285815  0.71616916    -0.22500
H507        H  0.41350387  0.46747076  0.71888274     0.08600
C508        C  0.40598046  0.50702476  0.76175093     0.05000
C509        C  0.40936923  0.53037466  0.75899977    -0.19700
C510        C  0.39948434  0.54218054  0.74085376    -0.12000
C511        C  0.38514902  0.53047267  0.72548643     0.13700
C512        C  0.38105044  0.50726150  0.72882171    -0.22400
C513        C  0.41898525  0.49459598  0.77996923    -0.05500
H514        H  0.42062233  0.53933661  0.77048371     0.15200
C515        C  0.37509675  0.54135709  0.70461433    -0.15700
H516        H  0.37055687  0.49807220  0.71681037     0.09500
H517        H  0.43867875  0.42893138  0.71741454     0.07400
H518        H  0.41431322  0.42666962  0.69891606     0.08600
H519        H  0.42072291  0.40416748  0.71816038     0.07600
H520        H  0.34706833  0.47897501  0.76654526     0.02500
H521        H  0.36825954  0.48392852  0.78806562     0.03000
H522        H  0.35095936  0.45885885  0.78916379     0.06500
H523        H  0.42999219  0.50624769  0.78989795     0.05500
H524        H  0.43000306  0.48151259  0.77208942    -0.00300
H525        H  0.40717392  0.48624377  0.79198192     0.01200
H526        H  0.38067222  0.53188341  0.68930519     0.04800
H527        H  0.38029904  0.55923416  0.70222702     0.06800
H528        H  0.35629437  0.54071187  0.70563216     0.07700
C529        C  0.03341083  0.82775991  0.29146080    -0.22000
C530        C  0.02862724  0.85097391  0.29256847     0.10000
C531        C  0.04609623  0.86652944  0.29748715     0.10400
C532        C  0.06791838  0.85837497  0.30223197    -0.16900
C533        C  0.07271779  0.83501631  0.30189851    -0.27300
C534        C  0.05537738  0.81957020  0.29544553     0.18700
C535        C  0.00506426  0.85858324  0.28891054     0.12700
C536        C  0.04165250  0.89169032  0.29775338    -0.11700
H537        H  0.08118830  0.87030992  0.30672311     0.13000
C538        C  0.05940349  0.79462703  0.29149680    -0.22500
H539        H  0.01994958  0.81598425  0.28709023     0.08600
C540        C  0.99601076  0.86116399  0.26690705     0.05000
C541        C  0.97343317  0.86820404  0.26442493    -0.19700
C542        C  0.95986897  0.87259659  0.28346294    -0.12000
C543        C  0.96902172  0.87025224  0.30550418     0.13700
C544        C  0.99156706  0.86317854  0.30793757    -0.22400
C545        C  0.01019578  0.85659175  0.24614480    -0.05500
H546        H  0.96623749  0.87012197  0.24759772     0.15200
C547        C  0.95559012  0.87520646  0.32671466    -0.15700
H548        H  0.99870553  0.86123651  0.32479456     0.09500
H549        H  0.05301479  0.78987426  0.27440297     0.07400
H550        H  0.05013516  0.78454673  0.30444277     0.08600
H551        H  0.07754451  0.78994723  0.29178859     0.07600
H552        H  0.02876726  0.89578155  0.31086664     0.02500
H553        H  0.03529432  0.89717221  0.28088040     0.03000
H554        H  0.05727726  0.90151609  0.30161070     0.06500
H555        H  0.00053317  0.85970363  0.23025874     0.05500
H556        H  0.01585432  0.83863881  0.24611258    -0.00300
H557        H  0.02530180  0.86786421  0.24615126     0.01200
H558        H  0.95452767  0.85964618  0.33727953     0.04800
H559        H  0.93807016  0.88103626  0.32316089     0.06800
H560        H  0.96426483  0.88870635  0.33660650     0.07700
C561        C  0.88697876  0.96849855  0.27928783    -0.22000
C562        C  0.89789077  0.97934887  0.26117659     0.10000
C563        C  0.91142399  0.96661464  0.24606482     0.10400
C564        C  0.91311802  0.94309776  0.24907732    -0.16900
C565        C  0.90269938  0.93224777  0.26757108    -0.27300
C566        C  0.88971577  0.94519937  0.28310445     0.18700
C567        C  0.89752638  0.00437483  0.26031938     0.12700
C568        C  0.92531660  0.97793752  0.22776931    -0.11700
H569        H  0.92353878  0.93322298  0.23757066     0.13000
C570        C  0.87988481  0.93557938  0.30470608    -0.22500
H571        H  0.87731384  0.97855127  0.29129298     0.08600
C572        C  0.88407382  0.01640761  0.24460701     0.05000
C573        C  0.88636938  0.04007765  0.24316692    -0.19700
C574        C  0.90131073  0.05184435  0.25754714    -0.12000
C575        C  0.91307083  0.03987438  0.27472388     0.13700
C576        C  0.91133165  0.01623316  0.27560449    -0.22400
C577        C  0.86720411  0.00434922  0.22962859    -0.05500
H578        H  0.87711204  0.04933472  0.23024746     0.15200
C579        C  0.92750040  0.05149672  0.29238996    -0.15700
H580        H  0.92102477  0.00691768  0.28817762     0.09500
H581        H  0.86112297  0.93721569  0.30436572     0.07400
H582        H  0.88656608  0.94525602  0.31944561     0.08600
H583        H  0.88422222  0.91756228  0.30760453     0.07600
H584        H  0.93725843  0.99024662  0.23558854     0.02500
H585        H  0.91420065  0.98704749  0.21567391     0.03000
H586        H  0.93545396  0.96544558  0.21795673     0.06500
H587        H  0.85791277  0.01640308  0.21852164     0.05500
H588        H  0.85460095  0.99534480  0.24036235    -0.00300
H589        H  0.87582876  0.99181119  0.21860863     0.01200
H590        H  0.92146691  0.04663018  0.30957585     0.04800
H591        H  0.92667487  0.07024512  0.29133477     0.06800
H592        H  0.94545138  0.04611870  0.29047042     0.07700
C593        C  0.04098247  0.10559474  0.20774086    -0.22000
C594        C  0.02705721  0.12334688  0.21514183     0.10000
C595        C  0.03588592  0.14545802  0.21702837     0.10400
C596        C  0.05855181  0.14941403  0.21116018    -0.16900
C597        C  0.07261633  0.13175755  0.20350844    -0.27300
C598        C  0.06381205  0.10939906  0.20216540     0.18700
C599        C  0.00333851  0.11834140  0.22130164     0.12700
C600        C  0.02130704  0.16488610  0.22498005    -0.11700
H601        H  0.06524212  0.16652370  0.21219645     0.13000
C602        C  0.07795537  0.08899779  0.19600175    -0.22500
H603        H  0.03406498  0.08856551  0.20671568     0.08600
C604        C  0.98609324  0.11753806  0.20473996     0.05000
C605        C  0.96377056  0.11286128  0.21147951    -0.19700
C606        C  0.95848868  0.10900813  0.23436149    -0.12000
C607        C  0.97574327  0.11018933  0.25099557     0.13700
C608        C  0.99805296  0.11470767  0.24418717    -0.22400
C609        C  0.99128314  0.12171122  0.18005772    -0.05500
H610        H  0.95039607  0.11200280  0.19886880     0.15200
C611        C  0.97118048  0.10724248  0.27600935    -0.15700
H612        H  0.01140888  0.11561729  0.25682176     0.09500
H613        H  0.07152405  0.08147417  0.17996168     0.07400
H614        H  0.07659073  0.07611430  0.20969419     0.08600
H615        H  0.09621924  0.09283987  0.19401329     0.07600
H616        H  0.01510468  0.16149539  0.24244567     0.02500
H617        H  0.00654842  0.16690069  0.21344219     0.03000
H618        H  0.03085104  0.18114400  0.22522299     0.06500
H619        H  0.97578702  0.12058369  0.16937891     0.05500
H620        H  0.00360633  0.10889079  0.17387156    -0.00300
H621        H  0.99866756  0.13891460  0.17792636     0.01200
H622        H  0.98082099  0.09241259  0.28246418     0.04800
H623        H  0.95298688  0.10461090  0.27996056     0.06800
H624        H  0.97681690  0.12266528  0.28526035     0.07700
C625        C  0.18136784  0.93020386  0.34622348    -0.22000
C626        C  0.18079806  0.93472494  0.36951079     0.10000
C627        C  0.17676526  0.91698648  0.38501661     0.10400
C628        C  0.17269715  0.89502201  0.37676959    -0.16900
C629        C  0.17235690  0.89050943  0.35332448    -0.27300
C630        C  0.17724460  0.90832090  0.33785202     0.18700
C631        C  0.18298875  0.95849268  0.37708966     0.12700
C632        C  0.17652063  0.92132872  0.41021458    -0.11700
H633        H  0.16921797  0.88146165  0.38866190     0.13000
C634        C  0.17865867  0.90448508  0.31256780    -0.22500
H635        H  0.18467791  0.94402779  0.33452720     0.08600
C636        C  0.20431795  0.96853786  0.38117691     0.05000
C637        C  0.20531060  0.99134398  0.38793813    -0.19700
C638        C  0.18544958  0.00425570  0.39030283    -0.12000
C639        C  0.16408702  0.99414286  0.38613342     0.13700
C640        C  0.16315696  0.97133366  0.37956169    -0.22400
C641        C  0.22593116  0.95525419  0.37820205    -0.05500
H642        H  0.22161722  0.99925395  0.39107983     0.15200
C643        C  0.14197951  0.00674826  0.38869708    -0.15700
H644        H  0.14683103  0.96347837  0.37629754     0.09500
H645        H  0.18441701  0.91994889  0.30345072     0.07400
H646        H  0.16172003  0.89995040  0.30570387     0.08600
H647        H  0.19098324  0.89073539  0.30885603     0.07600
H648        H  0.16306355  0.93380922  0.41441734     0.02500
H649        H  0.19321428  0.92817522  0.41565905     0.03000
H650        H  0.17316197  0.90557445  0.41999188     0.06500
H651        H  0.24114067  0.96569834  0.38209498     0.05500
H652        H  0.22731723  0.94927890  0.36038315    -0.00300
H653        H  0.22590456  0.94036803  0.38973473     0.01200
H654        H  0.13301129  0.00712811  0.37212433     0.04800
H655        H  0.14420170  0.02445900  0.39458303     0.06800
H656        H  0.13112063  0.99787683  0.40129446     0.07700
C657        C  0.16384263  0.10244632  0.33741180    -0.22000
C658        C  0.18400933  0.11187432  0.32905768     0.10000
C659        C  0.20429019  0.10969242  0.34155017     0.10400
C660        C  0.20427512  0.09659470  0.36142752    -0.16900
C661        C  0.18443298  0.08569270  0.36885134    -0.27300
C662        C  0.16376895  0.08941249  0.35726750     0.18700
C663        C  0.18384022  0.12139011  0.30590446     0.12700
C664        C  0.22598826  0.12053404  0.33346611    -0.11700
H665        H  0.22003393  0.09380618  0.37050756     0.13000
C666        C  0.14151322  0.07956107  0.36517021    -0.22500
H667        H  0.14825384  0.10445815  0.32784080     0.08600
C668        C  0.18791670  0.10729007  0.28701252     0.05000
C669        C  0.18531608  0.11613520  0.26513695    -0.19700
C670        C  0.17846551  0.13867671  0.26170112    -0.12000
C671        C  0.17575619  0.15319251  0.28070187     0.13700
C672        C  0.17815188  0.14420823  0.30264147    -0.22400
C673        C  0.19416241  0.08265703  0.28994306    -0.05500
H674        H  0.18750838  0.10501560  0.25064614     0.15200
C675        C  0.17090850  0.17820722  0.27857952    -0.15700
H676        H  0.17542535  0.15500625  0.31728745     0.09500
H677        H  0.13480051  0.06778905  0.35207573     0.07400
H678        H  0.12910065  0.09347981  0.36780085     0.08600
H679        H  0.14300689  0.07019345  0.38141672     0.07600
H680        H  0.22365972  0.13918261  0.33228526     0.02500
H681        H  0.23065330  0.11384265  0.31649272     0.03000
H682        H  0.24029504  0.11712642  0.34525622     0.06500
H683        H  0.19656961  0.07402588  0.27335904     0.05500
H684        H  0.18049269  0.07364934  0.29927977    -0.00300
H685        H  0.21024273  0.08122147  0.29963316     0.01200
H686        H  0.15392530  0.18199106  0.28580051     0.04800
H687        H  0.17156373  0.18439645  0.26084912     0.06800
H688        H  0.18390563  0.18791903  0.28818683     0.07700
C689        C  0.25023445  0.05774809  0.51842714    -0.22000
C690        C  0.23022159  0.07017094  0.51539370     0.10000
C691        C  0.21986607  0.08077226  0.53419574     0.10400
C692        C  0.22898021  0.07733180  0.55592092    -0.16900
C693        C  0.24846135  0.06395089  0.55909668    -0.27300
C694        C  0.25993201  0.05514234  0.53991439     0.18700
C695        C  0.21962904  0.07001864  0.49266537     0.12700
C696        C  0.19923750  0.09558761  0.53136278    -0.11700
H697        H  0.22036660  0.08439609  0.57055619     0.13000
C698        C  0.28253699  0.04324394  0.54135014    -0.22500
H699        H  0.25827634  0.04982693  0.50389068     0.08600
C700        C  0.23001210  0.08052331  0.47381533     0.05000
C701        C  0.22102160  0.07684792  0.45208842    -0.19700
C702        C  0.20181653  0.06307817  0.44885989    -0.12000
C703        C  0.19051129  0.05393384  0.46801500     0.13700
C704        C  0.19987707  0.05714010  0.48959948    -0.22400
C705        C  0.25060445  0.09545102  0.47658335    -0.05500
H706        H  0.22955353  0.08403735  0.43745290     0.15200
C707        C  0.16849509  0.04094830  0.46645363    -0.15700
H708        H  0.19189743  0.04917812  0.50416303     0.09500
H709        H  0.29476059  0.05161274  0.52968954     0.07400
H710        H  0.28055198  0.02523701  0.53618608     0.08600
H711        H  0.29012874  0.04392463  0.55853513     0.07600
H712        H  0.18484144  0.08554539  0.52456134     0.02500
H713        H  0.20318205  0.10965146  0.51945593     0.03000
H714        H  0.19378977  0.10313337  0.54775737     0.06500
H715        H  0.25604562  0.10292874  0.46015336     0.05500
H716        H  0.26504250  0.08551769  0.48341020    -0.00300
H717        H  0.24663451  0.10955475  0.48842200     0.01200
H718        H  0.17122090  0.02317042  0.47204952     0.04800
H719        H  0.16118873  0.04083286  0.44913435     0.06800
H720        H  0.15570303  0.04895503  0.47773673     0.07700
C721        C  0.34268085  0.27563496  0.80210774    -0.22000
C722        C  0.33453623  0.28395335  0.78140217     0.10000
C723        C  0.31795379  0.27171642  0.76926665     0.10400
C724        C  0.30998974  0.25107907  0.77814615    -0.16900
C725        C  0.31833696  0.24267051  0.79882339    -0.27300
C726        C  0.33493427  0.25504673  0.81093737     0.18700
C727        C  0.34510455  0.30476467  0.77242191     0.12700
C728        C  0.30887146  0.28039815  0.74702512    -0.11700
H729        H  0.29748658  0.24131443  0.76881636     0.13000
C730        C  0.34571587  0.24662515  0.83259292    -0.22500
H731        H  0.35571319  0.28500658  0.81112946     0.08600
C732        C  0.33991331  0.32621184  0.78160826     0.05000
C733        C  0.35400051  0.34470466  0.77655374    -0.19700
C734        C  0.37312468  0.34203343  0.76260274    -0.12000
C735        C  0.37692327  0.32099650  0.75164403     0.13700
C736        C  0.36299949  0.30250971  0.75696448    -0.22400
C737        C  0.32002050  0.32931191  0.79735361    -0.05500
H738        H  0.35094049  0.36090553  0.78469211     0.15200
C739        C  0.39565960  0.31739625  0.73458344    -0.15700
H740        H  0.36670135  0.28599669  0.74973429     0.09500
H741        H  0.34254339  0.25900825  0.84642850     0.07400
H742        H  0.36432429  0.24498220  0.83007711     0.08600
H743        H  0.33926319  0.22988766  0.83818603     0.07600
H744        H  0.32288124  0.28184612  0.73450911     0.02500
H745        H  0.30108097  0.29735296  0.74956566     0.03000
H746        H  0.29576322  0.26888167  0.73987871     0.06500
H747        H  0.31818064  0.34725629  0.80278834     0.05500
H748        H  0.32225746  0.31874560  0.81278031    -0.00300
H749        H  0.30416322  0.32415335  0.78856336     0.01200
H750        H  0.40801726  0.30487537  0.74130878     0.04800
H751        H  0.40482914  0.33325602  0.73030411     0.06800
H752        H  0.38832362  0.31073024  0.71855080     0.07700
C753        C  0.26441966  0.10837723  0.71962098    -0.22000
C754        C  0.26903535  0.12281594  0.70136265     0.10000
C755        C  0.27591719  0.14534048  0.70532771     0.10400
C756        C  0.27933960  0.15257670  0.72775961    -0.16900
C757        C  0.27551782  0.13785193  0.74614961    -0.27300
C758        C  0.26759630  0.11555848  0.74200896     0.18700
C759        C  0.26822698  0.11289081  0.67845337     0.12700
C760        C  0.27954101  0.16162190  0.68596491    -0.11700
H761        H  0.28519341  0.16971669  0.73096573     0.13000
C762        C  0.26397921  0.09869434  0.76087488    -0.22500
H763        H  0.25915196  0.09108179  0.71623371     0.08600
C764        C  0.28769383  0.10267723  0.66899526     0.05000
C765        C  0.28541457  0.08926375  0.64952993    -0.19700
C766        C  0.26407538  0.08546700  0.63972261    -0.12000
C767        C  0.24466219  0.09630806  0.64879119     0.13700
C768        C  0.24706876  0.11010606  0.66800720    -0.22400
C769        C  0.31061993  0.10480146  0.68018467    -0.05500
H770        H  0.30015642  0.08080174  0.64252845     0.15200
C771        C  0.22104057  0.09268305  0.63961794    -0.15700
H772        H  0.23215519  0.11766826  0.67567670     0.09500
H773        H  0.25889710  0.08176232  0.75433527     0.07400
H774        H  0.25030468  0.10460739  0.77238729     0.08600
H775        H  0.28005751  0.09659621  0.77044176     0.07600
H776        H  0.26349344  0.16350924  0.67627183     0.02500
H777        H  0.29292626  0.15520729  0.67440695     0.03000
H778        H  0.28478210  0.17865755  0.69209505     0.06500
H779        H  0.32391815  0.09543155  0.67068011     0.05500
H780        H  0.30988888  0.09778242  0.69765640    -0.00300
H781        H  0.31578558  0.12287092  0.68102651     0.01200
H782        H  0.21006181  0.08555597  0.65318559     0.04800
H783        H  0.22041373  0.08085839  0.62503820     0.06800
H784        H  0.21388775  0.10919096  0.63406063     0.07700
C785        C  0.17441102  0.85448477  0.20973430    -0.22000
C786        C  0.19487460  0.84629524  0.20092729     0.10000
C787        C  0.20765259  0.83046153  0.21352321     0.10400
C788        C  0.19975115  0.82345481  0.23491379    -0.16900
C789        C  0.17952145  0.83215688  0.24413246    -0.27300
C790        C  0.16645445  0.84763733  0.23105917     0.18700
C791        C  0.20329358  0.85647654  0.17953618     0.12700
C792        C  0.22952101  0.82090078  0.20438459    -0.11700
H793        H  0.20974508  0.81154167  0.24471732     0.13000
C794        C  0.14397736  0.85694882  0.23908587    -0.22500
H795        H  0.16486153  0.86685127  0.20001284     0.08600
C796        C  0.19188291  0.85338425  0.15866546     0.05000
C797        C  0.19767428  0.86714403  0.14006480    -0.19700
C798        C  0.21470031  0.88372006  0.14194515    -0.12000
C799        C  0.22757147  0.88513239  0.16218017     0.13700
C800        C  0.22136122  0.87186296  0.18085599    -0.22400
C801        C  0.17338838  0.83589556  0.15615928    -0.05500
H802        H  0.18805280  0.86582932  0.12443785     0.15200
C803        C  0.24781826  0.90057537  0.16473292    -0.15700
H804        H  0.23021177  0.87412615  0.19683459     0.09500
H805        H  0.13551060  0.86727447  0.22578328     0.07400
H806        H  0.14652936  0.86816880  0.25399273     0.08600
H807        H  0.13235958  0.84278884  0.24354065     0.07600
H808        H  0.24217562  0.83463756  0.20202276     0.02500
H809        H  0.22631383  0.81249158  0.18782843     0.03000
H810        H  0.23698223  0.80817870  0.21610982     0.06500
H811        H  0.16677308  0.83524192  0.13851609     0.05500
H812        H  0.15897642  0.83989598  0.16757925    -0.00300
H813        H  0.18018695  0.81887975  0.16050309     0.01200
H814        H  0.24434249  0.91340979  0.17807355     0.04800
H815        H  0.25235546  0.90942587  0.14876490     0.06800
H816        H  0.26281382  0.89040576  0.16987800     0.07700
C817        C  0.20172159  0.05112860  0.13295212    -0.22000
C818        C  0.19058572  0.03204127  0.14169696     0.10000
C819        C  0.17273770  0.03482588  0.15743016     0.10400
C820        C  0.16571042  0.05679879  0.16329713    -0.16900
C821        C  0.17670116  0.07593123  0.15439821    -0.27300
C822        C  0.19509817  0.07310339  0.13919818     0.18700
C823        C  0.19749952  0.00928738  0.13370449     0.12700
C824        C  0.16151722  0.01463045  0.16839450    -0.11700
H825        H  0.15194055  0.05908277  0.17528705     0.13000
C826        C  0.20778776  0.09278613  0.12885299    -0.22500
H827        H  0.21551910  0.04885311  0.12098455     0.08600
C828        C  0.18582993  0.99836926  0.11587567     0.05000
C829        C  0.19226855  0.97638908  0.10947062    -0.19700
C830        C  0.21023894  0.96518067  0.12035760    -0.12000
C831        C  0.22264604  0.97662114  0.13749315     0.13700
C832        C  0.21601458  0.99855407  0.14402609    -0.22400
C833        C  0.16667214  0.00998309  0.10356001    -0.05500
H834        H  0.18296802  0.96771607  0.09616384     0.15200
C835        C  0.24322901  0.96612629  0.14845511    -0.15700
H836        H  0.22516937  0.00733640  0.15735923     0.09500
H837        H  0.20676422  0.09173218  0.11006096     0.07400
H838        H  0.22590003  0.09200022  0.13400325     0.08600
H839        H  0.20096585  0.10952701  0.13396909     0.07600
H840        H  0.17439307  0.00464805  0.17785109     0.02500
H841        H  0.15361850  0.00364951  0.15530518     0.03000
H842        H  0.14807842  0.01984140  0.18054019     0.06500
H843        H  0.15954782  0.99913152  0.08988885     0.05500
H844        H  0.17295104  0.02592482  0.09572140    -0.00300
H845        H  0.15277187  0.01408469  0.11556961     0.01200
H846        H  0.25562772  0.96106855  0.13520052     0.04800
H847        H  0.23831625  0.95108161  0.15855637     0.06800
H848        H  0.25180438  0.97817085  0.16015509     0.07700
C849        C  0.29127242  0.99717446  0.87608081    -0.22000
C850        C  0.27265297  0.01191997  0.87645352     0.10000
C851        C  0.25105016  0.00372073  0.88271242     0.10400
C852        C  0.24846971  0.98070441  0.88815066    -0.16900
C853        C  0.26699237  0.96581281  0.88728830    -0.27300
C854        C  0.28877317  0.97419958  0.88161239     0.18700
C855        C  0.27599973  0.03563973  0.86913790     0.12700
C856        C  0.23080049  0.01926708  0.88360404    -0.11700
H857        H  0.23188102  0.97418899  0.89275742     0.13000
C858        C  0.30973620  0.95954967  0.88153771    -0.22500
H859        H  0.30784577  0.00363813  0.87133714     0.08600
C860        C  0.28581988  0.05200579  0.88353985     0.05000
C861        C  0.28908222  0.07412872  0.87542424    -0.19700
C862        C  0.28293630  0.08018844  0.85317325    -0.12000
C863        C  0.27354772  0.06345380  0.83860113     0.13700
C864        C  0.26986536  0.04153160  0.84698110    -0.22400
C865        C  0.29264242  0.04615445  0.90746911    -0.05500
H866        H  0.29636825  0.08682624  0.88658385     0.15200
C867        C  0.26833118  0.06740759  0.81387146    -0.15700
H868        H  0.26272137  0.02866805  0.83590306     0.09500
H869        H  0.32252433  0.96684680  0.89331187     0.07400
H870        H  0.31702271  0.95905990  0.86416483     0.08600
H871        H  0.30642242  0.94190520  0.88707213     0.07600
H872        H  0.22752369  0.02650672  0.86652632     0.02500
H873        H  0.23410794  0.03327825  0.89576292     0.03000
H874        H  0.21525042  0.01017138  0.88917268     0.06500
H875        H  0.29976038  0.06106128  0.91655852     0.05500
H876        H  0.30577088  0.03266743  0.90725253    -0.00300
H877        H  0.27760730  0.04003467  0.91704569     0.01200
H878        H  0.27717026  0.05444932  0.80342959     0.04800
H879        H  0.27414437  0.08404367  0.80762996     0.06800
H880        H  0.24977232  0.06587973  0.81097612     0.07700
C881        C  0.26286954  0.91053155  0.98382081    -0.22000
C882        C  0.24322881  0.89873083  0.99018046     0.10000
C883        C  0.22956972  0.88858865  0.97322087     0.10400
C884        C  0.23511778  0.89189580  0.95024090    -0.16900
C885        C  0.25418852  0.90473464  0.94393930    -0.27300
C886        C  0.26897340  0.91295227  0.96101838     0.18700
C887        C  0.23644521  0.89931489  0.01444566     0.12700
C888        C  0.20916335  0.87439332  0.97927295    -0.11700
H889        H  0.22401166  0.88525798  0.93715439     0.13000
C890        C  0.29138437  0.92423263  0.95586884    -0.22500
H891        H  0.27338257  0.91832247  0.99676588     0.08600
C892        C  0.25002120  0.88977333  0.03177744     0.05000
C893        C  0.24435101  0.89377947  0.05459825    -0.19700
C894        C  0.22530621  0.90684038  0.06049119    -0.12000
C895        C  0.21090102  0.91503098  0.04307224     0.13700
C896        C  0.21703134  0.91169943  0.02035452    -0.22400
C897        C  0.27040440  0.87533560  0.02629624    -0.05500
H898        H  0.25522341  0.88724394  0.06792358     0.15200
C899        C  0.18874654  0.92698088  0.04767917    -0.15700
H900        H  0.20666614  0.91912994  0.00709147     0.09500
H901        H  0.30513920  0.91529563  0.96513839     0.17000
H902        H  0.29091358  0.94218474  0.96154726     0.08600
H903        H  0.29587905  0.92370372  0.93761254     0.07600
H904        H  0.19623117  0.88481626  0.98807852     0.02500
H905        H  0.21443361  0.86023502  0.99051796     0.03000
H906        H  0.20105278  0.86698607  0.96394359     0.06500
H907        H  0.27838110  0.86838102  0.04189461     0.05500
H908        H  0.28347243  0.88543690  0.01729249    -0.00300
H909        H  0.26515375  0.86085610  0.01544525     0.01200
H910        H  0.18974451  0.94473765  0.04147312     0.04800
H911        H  0.18402846  0.92713171  0.06587013     0.06800
H912        H  0.17484651  0.91810989  0.03853631     0.07700
C913        C  0.31058686  0.16758771  0.11907514    -0.22000
C914        C  0.30142939  0.18704480  0.12915247     0.10000
C915        C  0.31318251  0.20784322  0.12780925     0.10400
C916        C  0.33324928  0.20905414  0.11504342    -0.16900
C917        C  0.34154783  0.18992691  0.10358284    -0.27300
C918        C  0.33059058  0.16875047  0.10630603     0.18700
C919        C  0.27830950  0.18575244  0.13868490     0.12700
C920        C  0.30398177  0.22886308  0.13903564    -0.11700
H921        H  0.34173564  0.22523590  0.11287150     0.13000
C922        C  0.33926265  0.14725602  0.09550802    -0.22500
H923        H  0.30154586  0.15160570  0.12037607     0.08600
C924        C  0.25920427  0.18898911  0.12465352     0.05000
C925        C  0.23745196  0.18677713  0.13393652    -0.19700
C926        C  0.23437006  0.18111771  0.15687191    -0.12000
C927        C  0.25361350  0.17889754  0.17117554     0.13700
C928        C  0.27539904  0.18095237  0.16176286    -0.22400
C929        C  0.26179869  0.19421141  0.09973539    -0.05500
H930        H  0.22279068  0.18842888  0.12295331     0.15200
C931        C  0.25194043  0.17498281  0.19641861    -0.15700
H932        H  0.29020661  0.17888301  0.17248494     0.09500
H933        H  0.32656109  0.14079931  0.08316866     0.07400
H934        H  0.34200811  0.13423388  0.10884310     0.08600
H935        H  0.35562062  0.14967412  0.08653020     0.07600
H936        H  0.30252733  0.22600003  0.15760571     0.02500
H937        H  0.28695900  0.23293275  0.13207091     0.03000
H938        H  0.31520588  0.24374562  0.13622429     0.06500
H939        H  0.24510108  0.19620896  0.09122299     0.05500
H940        H  0.27104611  0.18020396  0.09119690    -0.00300
H941        H  0.27145270  0.21023651  0.09752810     0.01200
H942        H  0.25899244  0.15805135  0.20067831     0.04800
H943        H  0.23436904  0.17613423  0.20296948     0.06800
H944        H  0.26193454  0.18816537  0.20546038     0.07700
C945        C  0.34575208  0.17299008  0.99018966    -0.22000
C946        C  0.34696083  0.19250054  0.97668261     0.10000
C947        C  0.35593225  0.21273184  0.98574237     0.10400
C948        C  0.36337946  0.21305111  0.00836343    -0.16900
C949        C  0.36200349  0.19357670  0.02201232    -0.27300
C950        C  0.35341709  0.17315490  0.01269393     0.18700
C951        C  0.33937152  0.19097274  0.95284110     0.12700
C952        C  0.35750368  0.23391833  0.97155276    -0.11700
H953        H  0.36999489  0.22863920  0.01556581     0.13000
C954        C  0.35270514  0.15110563  0.02567022    -0.22500
H955        H  0.33914166  0.15740532  0.98296189     0.08600
C956        C  0.35421512  0.18347563  0.93568731     0.05000
C957        C  0.34586719  0.18039907  0.91365621    -0.19700
C958        C  0.32299117  0.18454334  0.90836754    -0.12000
C959        C  0.30815238  0.19246277  0.92558548     0.13700
C960        C  0.31667754  0.19574090  0.94760607    -0.22400
C961        C  0.37876261  0.17838194  0.94073544    -0.05500
H962        H  0.35722727  0.17438985  0.90048554     0.15200
C963        C  0.28312120  0.19644126  0.92196464    -0.15700
H964        H  0.30535838  0.20133527  0.96099757     0.09500
H965        H  0.36215310  0.13791893  0.01609361     0.07400
H966        H  0.33481487  0.14552567  0.02768142     0.08600
H967        H  0.36056172  0.15225749  0.04270127     0.07600
H968        H  0.34029805  0.23896497  0.96578187     0.02500
H969        H  0.36837793  0.23078079  0.95649610     0.03000
H970        H  0.36493550  0.24826960  0.98125692     0.06500
H971        H  0.38803979  0.17273703  0.92532824     0.05500
H972        H  0.37991669  0.16469586  0.95362246    -0.00300
H973        H  0.38729133  0.19382024  0.94734817     0.01200
H974        H  0.27328382  0.18593621  0.93414104     0.04800
H975        H  0.27711485  0.19192749  0.90477792     0.06800
H976        H  0.27915913  0.21458746  0.92508186     0.07700
C977        C  0.46242578  0.20235012  0.07350228    -0.22000
C978        C  0.46702680  0.22108654  0.08739573     0.10000
C979        C  0.44902034  0.23197274  0.09886105     0.10400
C980        C  0.42667393  0.22450598  0.09519884    -0.16900
C981        C  0.42199332  0.20623339  0.08060388    -0.27300
C982        C  0.44027055  0.19432605  0.07051167     0.18700
C983        C  0.49061913  0.22979646  0.08812007     0.12700
C984        C  0.45331565  0.25140236  0.11492537    -0.11700
H985        H  0.41273119  0.23346499  0.10315755     0.13000
C986        C  0.43719678  0.17289268  0.05685872    -0.22500
H987        H  0.47627520  0.19395509  0.06476652     0.08600
C988        C  0.50865100  0.21689276  0.09721866     0.05000
C989        C  0.53106162  0.22441297  0.09415155    -0.19700
C990        C  0.53576425  0.24473353  0.08261739    -0.12000
C991        C  0.51752460  0.25863325  0.07546300     0.13700
C992        C  0.49526873  0.25062690  0.07765315    -0.22400
C993        C  0.50430115  0.19522784  0.11008972    -0.05500
H994        H  0.54500025  0.21394946  0.10000630     0.15200
C995        C  0.52082962  0.28207848  0.06575743    -0.15700
H996        H  0.48141302  0.26062404  0.07082427     0.09500
H997        H  0.44808285  0.15930990  0.06405857     0.07400
H998        H  0.44233538  0.17596808  0.03898779     0.08600
H999        H  0.41955132  0.16640647  0.05713388     0.07600
H1000       H  0.46073338  0.26602882  0.10570529     0.02500
H1001       H  0.46520417  0.24591690  0.12847248     0.03000
H1002       H  0.43740101  0.25727160  0.12313930     0.06500
H1003       H  0.52027066  0.18783335  0.11682830     0.05500
H1004       H  0.49632249  0.18239314  0.09888240    -0.00300
H1005       H  0.49287585  0.19871623  0.12466394     0.01200
H1006       H  0.51499990  0.28240865  0.04784042     0.04800
H1007       H  0.53869286  0.28791546  0.06648960     0.06800
H1008       H  0.51064936  0.29442010  0.07570919     0.07700
C1009       C  0.68668227  0.29377393  0.13196763    -0.22000
C1010       C  0.67680014  0.27435024  0.14130719     0.10000
C1011       C  0.68812721  0.26246020  0.15866937     0.10400
C1012       C  0.70953668  0.27007549  0.16598513    -0.16900
C1013       C  0.72000428  0.28912193  0.15602952    -0.27300
C1014       C  0.70804591  0.30141378  0.13901388     0.18700
C1015       C  0.65535734  0.26620998  0.13110911     0.12700
C1016       C  0.67762948  0.24176331  0.16935508    -0.11700
H1017       H  0.71839986  0.26068148  0.17906952     0.13000
C1018       C  0.71729275  0.32268942  0.12809505    -0.22500
H1019       H  0.67775393  0.30271432  0.11858814     0.08600
C1020       C  0.63474675  0.27794699  0.13431899     0.05000
C1021       C  0.61600743  0.27251711  0.12066357    -0.19700
C1022       C  0.61759192  0.25578593  0.10379630    -0.12000
C1023       C  0.63770945  0.24283168  0.10186691     0.13700
C1024       C  0.65643165  0.24837931  0.11542670    -0.22400
C1025       C  0.63275333  0.29659800  0.15167802    -0.05500
H1026       H  0.60051095  0.28228167  0.12221843     0.15200
C1027       C  0.64008575  0.22329464  0.08552408    -0.15700
H1028       H  0.67227455  0.23932276  0.11310816     0.09500
H1029       H  0.72182947  0.33528006  0.14136351     0.07400
H1030       H  0.70467599  0.33078216  0.11666751     0.08600
H1031       H  0.73235546  0.31862092  0.11755310     0.07600
H1032       H  0.67511168  0.22838852  0.15633619     0.02500
H1033       H  0.66095885  0.24627880  0.17688643     0.03000
H1034       H  0.68853443  0.23468273  0.18299583     0.06500
H1035       H  0.61530532  0.30368797  0.15229466     0.05500
H1036       H  0.64459081  0.31064003  0.14750716    -0.00300
H1037       H  0.63694607  0.28981583  0.16875028     0.01200
H1038       H  0.65345062  0.22724848  0.07283607     0.04800
H1039       H  0.62410043  0.21936447  0.07641033     0.06800
H1040       H  0.64506422  0.20780069  0.09501099     0.07700
C1041       C  0.86811754  0.17289058  0.24673943    -0.22000
C1042       C  0.85034138  0.16970439  0.23126669     0.10000
C1043       C  0.84535611  0.14765065  0.22335169     0.10400
C1044       C  0.85945461  0.12953658  0.22969400    -0.16900
C1045       C  0.87826955  0.13303070  0.24390144    -0.27300
C1046       C  0.88179443  0.15473878  0.25361886     0.18700
C1047       C  0.83891137  0.19001024  0.22184643     0.12700
C1048       C  0.82542917  0.14332740  0.20792794    -0.11700
H1049       H  0.85653744  0.11286472  0.22249619     0.13000
C1050       C  0.89986152  0.15936795  0.27116404    -0.22500
H1051       H  0.87173763  0.18979453  0.25305305     0.08600
C1052       C  0.82447353  0.20379965  0.23503111     0.05000
C1053       C  0.81610469  0.22411053  0.22577423    -0.19700
C1054       C  0.82209886  0.23106101  0.20373664    -0.12000
C1055       C  0.83566413  0.21651975  0.19015330     0.13700
C1056       C  0.84398761  0.19630692  0.19949688    -0.22400
C1057       C  0.81797577  0.19712844  0.25883911    -0.05500
H1058       H  0.80557319  0.23504121  0.23614389     0.15200
C1059       C  0.84123259  0.22184519  0.16571048    -0.15700
H1060       H  0.85504401  0.18554562  0.18947841     0.09500
H1061       H  0.89194429  0.16712491  0.28640362     0.07400
H1062       H  0.91261454  0.17134535  0.26414931     0.08600
H1063       H  0.90865508  0.14377193  0.27689552     0.07600
H1064       H  0.82761130  0.15259517  0.19169163     0.02500
H1065       H  0.80959182  0.14912675  0.21632633     0.03000
H1066       H  0.82355841  0.12501073  0.20392037     0.06500
H1067       H  0.80600736  0.20948244  0.26652172     0.05500
H1068       H  0.83328441  0.19636696  0.26977024    -0.00300
H1069       H  0.80963354  0.18023292  0.25862015     0.01200
H1070       H  0.85015990  0.20753837  0.15729940     0.04800
H1071       H  0.85258610  0.23681790  0.16463501     0.06800
H1072       H  0.82535192  0.22510946  0.15610503     0.07700
C1073       C  0.78538233  0.36055325  0.29197721    -0.22000
C1074       C  0.76927009  0.34854622  0.30453118     0.10000
C1075       C  0.75812731  0.32983662  0.29464880     0.10400
C1076       C  0.76354663  0.32351322  0.27222561    -0.16900
C1077       C  0.77982019  0.33557557  0.25942974    -0.27300
C1078       C  0.79103909  0.35436457  0.26978390     0.18700
C1079       C  0.76416710  0.35714278  0.32760308     0.12700
C1080       C  0.74080758  0.31646997  0.30784204    -0.11700
H1081       H  0.75491448  0.30913967  0.26466793     0.13000
C1082       C  0.80934079  0.36805110  0.25814219    -0.22500
H1083       H  0.79363588  0.37505670  0.29976051     0.08600
C1084       C  0.78070616  0.35634632  0.34496220     0.05000
C1085       C  0.77845292  0.37058193  0.36393967    -0.19700
C1086       C  0.75998575  0.38542321  0.36584521    -0.12000
C1087       C  0.74227351  0.38439921  0.34971733     0.13700
C1088       C  0.74464516  0.37036075  0.33063110    -0.22400
C1089       C  0.80104781  0.34099020  0.34306917    -0.05500
H1090       H  0.79173055  0.37106737  0.37665740     0.15200
C1091       C  0.72110382  0.39843002  0.35243862    -0.15700
H1092       H  0.73193655  0.37080881  0.31733677     0.09500
H1093       H  0.82343903  0.35671931  0.25295112     0.07400
H1094       H  0.81669556  0.38121576  0.26946305     0.08600
H1095       H  0.80223994  0.37703720  0.24319271     0.07600
H1096       H  0.72639640  0.32759084  0.31263145     0.02500
H1097       H  0.74872901  0.30953716  0.32346996     0.03000
H1098       H  0.73397756  0.30206591  0.29777888     0.06500
H1099       H  0.81198776  0.34201802  0.35838640     0.05500
H1100       H  0.81151846  0.34574922  0.32816247    -0.00300
H1101       H  0.79527557  0.32315573  0.34114358     0.01200
H1102       H  0.70868788  0.39507605  0.33865340     0.04800
H1103       H  0.72536625  0.41671182  0.35206511     0.06800
H1104       H  0.71287335  0.39431821  0.36888969     0.07700
C1105       C  0.09371630  0.20602862  0.02363211    -0.22000
C1106       C  0.09967743  0.18420086  0.03088797     0.10000
C1107       C  0.09860123  0.16583963  0.01560353     0.10400
C1108       C  0.09173887  0.16976674  0.99320004    -0.16900
C1109       C  0.08598084  0.19162343  0.98577709    -0.27300
C1110       C  0.08704321  0.21005647  0.00113839     0.18700
C1111       C  0.10784210  0.18093783  0.05434291     0.12700
C1112       C  0.10505024  0.14220630  0.02287464    -0.11700
H1113       H  0.09102430  0.15574606  0.98130083     0.13000
C1114       C  0.08213440  0.23418872  0.99426765    -0.22500
H1115       H  0.09478447  0.22007925  0.03547561     0.08600
C1116       C  0.13073824  0.18478556  0.06010715     0.05000
C1117       C  0.13803462  0.18033520  0.08230100    -0.19700
C1118       C  0.12301538  0.17176772  0.09871104    -0.12000
C1119       C  0.09993231  0.16825795  0.09294568     0.13700
C1120       C  0.09263762  0.17296905  0.07077137    -0.22400
C1121       C  0.14750618  0.19318626  0.04271569    -0.05500
H1122       H  0.15567321  0.18311597  0.08674890     0.15200
C1123       C  0.08277342  0.16020656  0.11014792    -0.15700
H1124       H  0.07506364  0.17019010  0.06609622     0.09500
H1125       H  0.09725983  0.24489615  0.99774346     0.07400
H1126       H  0.06760402  0.24073358  0.00431339     0.08600
H1127       H  0.07800045  0.23601063  0.97602470     0.07600
H1128       H  0.09376539  0.13652330  0.03685374     0.02500
H1129       H  0.12291625  0.14204101  0.02886427     0.03000
H1130       H  0.10348442  0.12987049  0.00870797     0.06500
H1131       H  0.16479451  0.19506167  0.04999862     0.05500
H1132       H  0.14205769  0.20998494  0.03619260    -0.00300
H1133       H  0.14846259  0.18099687  0.02837874     0.01200
H1134       H  0.06534532  0.15979030  0.10296823     0.04800
H1135       H  0.08266423  0.17182728  0.12498497     0.06800
H1136       H  0.08695658  0.14275752  0.11580436     0.07700
C1137       C  0.14270501  0.16950841  0.89143997    -0.22000
C1138       C  0.14961305  0.18885092  0.87948926     0.10000
C1139       C  0.13558653  0.20820546  0.87908054     0.10400
C1140       C  0.11549219  0.20826704  0.89188188    -0.16900
C1141       C  0.10926066  0.18939645  0.90502540    -0.27300
C1142       C  0.12258886  0.16944457  0.90409682     0.18700
C1143       C  0.17225973  0.18869655  0.86870635     0.12700
C1144       C  0.14211814  0.22890567  0.86560005    -0.11700
H1145       H  0.10522490  0.22349299  0.89257869     0.13000
C1146       C  0.11618778  0.14790126  0.91633500    -0.22500
H1147       H  0.15338731  0.15453563  0.89133202     0.08600
C1148       C  0.19164508  0.19594454  0.88072861     0.05000
C1149       C  0.21309994  0.19365379  0.87071747    -0.19700
C1150       C  0.21573540  0.18348489  0.84930024    -0.12000
C1151       C  0.19612324  0.17668136  0.83705112     0.13700
C1152       C  0.17459968  0.17957454  0.84690467    -0.22400
C1153       C  0.18977022  0.20521379  0.90450728    -0.05500
H1154       H  0.22800951  0.19873689  0.88023367     0.15200
C1155       C  0.19759283  0.16649346  0.81362069    -0.15700
H1156       H  0.15953854  0.17406750  0.83788109     0.09500
H1157       H  0.12926475  0.14388092  0.92929325     0.07400
H1158       H  0.11527765  0.13371521  0.90396392     0.08600
H1159       H  0.09943700  0.14896949  0.92482505     0.07600
H1160       H  0.14372670  0.22433688  0.84739055     0.02500
H1161       H  0.15858414  0.23570054  0.87171814     0.03000
H1162       H  0.12922309  0.24255127  0.86713012     0.06500
H1163       H  0.20662515  0.20987999  0.91155651     0.05500
H1164       H  0.18209799  0.19223625  0.91581631    -0.00300
H1165       H  0.17896043  0.22060671  0.90459478     0.01200
H1166       H  0.20599611  0.14968209  0.81433670     0.04800
H1167       H  0.20725036  0.17799663  0.80223768     0.06800
H1168       H  0.18051500  0.16385944  0.80607020     0.07700
C1169       C  0.83878758  0.26322062  0.01388428    -0.22000
C1170       C  0.84884903  0.28096718  0.02608806     0.10000
C1171       C  0.86514024  0.29497009  0.01554864     0.10400
C1172       C  0.87078325  0.29111944  0.99275345    -0.16900
C1173       C  0.86045849  0.27359770  0.98035038    -0.27300
C1174       C  0.84450189  0.25922348  0.99112888     0.18700
C1175       C  0.84168323  0.28495394  0.04977774     0.12700
C1176       C  0.87637872  0.31405435  0.02832952    -0.11700
H1177       H  0.88308005  0.30199804  0.98444519     0.13000
C1178       C  0.83357506  0.23927669  0.97939908    -0.22500
H1179       H  0.82640881  0.25242735  0.02218809     0.08600
C1180       C  0.82315708  0.29911679  0.05478227     0.05000
C1181       C  0.81718129  0.30284896  0.07747059    -0.19700
C1182       C  0.82927845  0.29276104  0.09547963    -0.12000
C1183       C  0.84794411  0.27836370  0.09024333     0.13700
C1184       C  0.85379808  0.27466876  0.06740846    -0.22400
C1185       C  0.80975338  0.31037400  0.03613302    -0.05500
H1186       H  0.80297138  0.31393949  0.08106056     0.15200
C1187       C  0.86180388  0.26663739  0.10828350    -0.15700
H1188       H  0.86802067  0.26380002  0.06320806     0.09500
H1189       H  0.81491169  0.24177469  0.97877181     0.07400
H1190       H  0.83727457  0.22354537  0.98907886     0.08600
H1191       H  0.83979974  0.23667273  0.96185333     0.07600
H1192       H  0.88567422  0.30715439  0.04319129     0.02500
H1193       H  0.86337145  0.32627187  0.03433118     0.03000
H1194       H  0.88867941  0.32340644  0.01752750     0.06500
H1195       H  0.79578435  0.32099950  0.04298682     0.05500
H1196       H  0.80216786  0.29726287  0.02492602    -0.00300
H1197       H  0.82105590  0.32145518  0.02591222     0.01200
H1198       H  0.87517580  0.25565239  0.10082739     0.04800
H1199       H  0.85067644  0.25567365  0.11883223     0.06800
H1200       H  0.87046865  0.27941111  0.11909033     0.07700
C1201       C  0.95900153  0.25775455  0.92849515    -0.22000
C1202       C  0.96218907  0.23723734  0.91691966     0.10000
C1203       C  0.94338708  0.22650125  0.90654972     0.10400
C1204       C  0.92167596  0.23604342  0.90901784    -0.16900
C1205       C  0.91839779  0.25608814  0.92146811    -0.27300
C1206       C  0.93749944  0.26762403  0.93041213     0.18700
C1207       C  0.98501941  0.22664458  0.91771145     0.12700
C1208       C  0.94613685  0.20498389  0.89302186    -0.11700
H1209       H  0.90705598  0.22729759  0.90203538     0.13000
C1210       C  0.93590063  0.29039257  0.94197871    -0.22500
H1211       H  0.97339922  0.26598898  0.93648902     0.08600
C1212       C  0.00423002  0.23699874  0.90773042     0.05000
C1213       C  0.02586067  0.22790477  0.91187239    -0.19700
C1214       C  0.02870291  0.20857583  0.92551625    -0.12000
C1215       C  0.00926808  0.19730252  0.93408533     0.13700
C1216       C  0.98778985  0.20682653  0.93055814    -0.22400
C1217       C  0.00198853  0.25761100  0.89276394    -0.05500
H1218       H  0.04071253  0.23640722  0.90509924     0.15200
C1219       C  0.01043828  0.17509786  0.94673927    -0.15700
H1220       H  0.97306691  0.19887631  0.93824754     0.09500
H1221       H  0.94748041  0.30256596  0.93342525     0.07400
H1222       H  0.94108024  0.28872279  0.96002238     0.08600
H1223       H  0.91863922  0.29779533  0.94127915     0.07600
H1224       H  0.95226849  0.19104228  0.90404873     0.02500
H1225       H  0.95849480  0.20781209  0.87908074     0.03000
H1226       H  0.92982160  0.19943891  0.88535747     0.06500
H1227       H  0.01862703  0.26288613  0.88562653     0.05500
H1228       H  0.99514913  0.27213588  0.90254846    -0.00300
H1229       H  0.99041553  0.25376057  0.87839810     0.01200
H1230       H  0.00434983  0.17753410  0.96440730     0.04800
H1231       H  0.02774507  0.16779834  0.94722233     0.06800
H1232       H  0.99937640  0.16245232  0.93818376     0.07700
C1233       C  0.75982989  0.50203173  0.36590008    -0.22000
C1234       C  0.77995562  0.51230527  0.37329307     0.10000
C1235       C  0.79517570  0.50009300  0.38713810     0.10400
C1236       C  0.79000950  0.47761134  0.39306812    -0.16900
C1237       C  0.77003900  0.46714517  0.38534237    -0.27300
C1238       C  0.75466973  0.47955292  0.37174856     0.18700
C1239       C  0.78468192  0.53589468  0.36617276     0.12700
C1240       C  0.81689037  0.51073748  0.39543653    -0.11700
H1241       H  0.80163075  0.46808097  0.40367220     0.13000
C1242       C  0.73263512  0.46934697  0.36377937    -0.22500
H1243       H  0.74817793  0.51166831  0.35543873     0.08600
C1244       C  0.79316735  0.54081548  0.34439312     0.05000
C1245       C  0.79657090  0.56348428  0.33805299    -0.19700
C1246       C  0.79178247  0.58151632  0.35302404    -0.12000
C1247       C  0.78358688  0.57632690  0.37516908     0.13700
C1248       C  0.78007483  0.55356835  0.38130882    -0.22400
C1249       C  0.79882476  0.52209099  0.32792490    -0.05500
H1250       H  0.80296854  0.56704860  0.32118949     0.15200
C1251       C  0.77871036  0.59432768  0.39270996    -0.15700
H1252       H  0.77361618  0.54945315  0.39803973     0.09500
H1253       H  0.72207337  0.48189316  0.35450642     0.07400
H1254       H  0.72271938  0.46312742  0.37855442     0.08600
H1255       H  0.73612686  0.45510683  0.35203654     0.07600
H1256       H  0.81297907  0.52579299  0.40605073     0.02500
H1257       H  0.82739084  0.51607804  0.38072359     0.03000
H1258       H  0.82700956  0.49873156  0.40585061     0.06500
H1259       H  0.80567786  0.52883951  0.31171107     0.05500
H1260       H  0.78334234  0.51209334  0.32400392    -0.00300
H1261       H  0.81179842  0.51072213  0.33549042     0.01200
H1262       H  0.76478288  0.60551210  0.38676521     0.04800
H1263       H  0.79425838  0.60446449  0.39602141     0.06800
H1264       H  0.77323740  0.58687142  0.40913978     0.07700
C1265       C  0.82075184  0.78519056  0.29092152    -0.22000
C1266       C  0.84372130  0.78829608  0.28567673     0.10000
C1267       C  0.85844814  0.76948248  0.28518470     0.10400
C1268       C  0.84996692  0.74797517  0.29054621    -0.16900
C1269       C  0.82718955  0.74479383  0.29684183    -0.27300
C1270       C  0.81224612  0.76369307  0.29681724     0.18700
C1271       C  0.85290180  0.81151798  0.28357460     0.12700
C1272       C  0.88332473  0.77222595  0.27978609    -0.11700
H1273       H  0.86140325  0.73357030  0.29044883     0.13000
C1274       C  0.78779365  0.76247822  0.30430254    -0.22500
H1275       H  0.80965287  0.79984234  0.29155351     0.08600
C1276       C  0.85602023  0.82202937  0.26230342     0.05000
C1277       C  0.86882367  0.84210132  0.26104202    -0.19700
C1278       C  0.87854324  0.85159611  0.28060269    -0.12000
C1279       C  0.87394606  0.84192170  0.30207197     0.13700
C1280       C  0.86115356  0.82196002  0.30326956    -0.22400
C1281       C  0.84654898  0.81160871  0.24098222    -0.05500
H1282       H  0.87237964  0.84965947  0.24464844     0.15200
C1283       C  0.88284323  0.85185079  0.32392649    -0.15700
H1284       H  0.85850988  0.81387416  0.31959477     0.09500
H1285       H  0.77658905  0.76708979  0.28987111     0.07400
H1286       H  0.78494873  0.77474769  0.31832324     0.08600
H1287       H  0.78259150  0.74566195  0.31071821     0.07600
H1288       H  0.89140919  0.78366331  0.29239394     0.02500
H1289       H  0.88538650  0.77956698  0.26256710     0.03000
H1290       H  0.89243529  0.75574458  0.28021899     0.06500
H1291       H  0.85055389  0.82200861  0.22577679     0.05500
H1292       H  0.82781184  0.81021898  0.24242652    -0.00300
H1293       H  0.85380180  0.79443412  0.23841292     0.01200
H1294       H  0.86841999  0.85534053  0.33554135     0.04800
H1295       H  0.89212037  0.86802628  0.32140617     0.06800
H1296       H  0.89447558  0.83955145  0.33218090     0.07700
C1297       C  0.13552662  0.28046710  0.19553670    -0.22000
C1298       C  0.11306781  0.28364758  0.20253332     0.10000
C1299       C  0.09955067  0.26473799  0.20826846     0.10400
C1300       C  0.10868927  0.24288882  0.20628139    -0.16900
C1301       C  0.13097971  0.23952619  0.19852481    -0.27300
C1302       C  0.14482338  0.25863977  0.19376827     0.18700
C1303       C  0.10359771  0.30682186  0.20312834     0.12700
C1304       C  0.07538211  0.26764147  0.21615145    -0.11700
H1305       H  0.09807306  0.22831731  0.20997859     0.13000
C1306       C  0.16955626  0.25683926  0.18746062    -0.22500
H1307       H  0.14588464  0.29513755  0.19148639     0.08600
C1308       C  0.10632133  0.32104415  0.22218662     0.05000
C1309       C  0.09413794  0.34147979  0.22325973    -0.19700
C1310       C  0.07940343  0.34781653  0.20564387    -0.12000
C1311       C  0.07830814  0.33441936  0.18571938     0.13700
C1312       C  0.09025627  0.31395391  0.18483718    -0.22400
C1313       C  0.12129213  0.31414652  0.24170426    -0.05500
H1314       H  0.09504925  0.35183038  0.23844361     0.15200
C1315       C  0.06444777  0.34104492  0.16524779    -0.15700
H1316       H  0.08863771  0.30313538  0.17003063     0.09500
H1317       H  0.17977598  0.26754010  0.19914419     0.07400
H1318       H  0.17205601  0.26300817  0.16983063     0.08600
H1319       H  0.17634126  0.23939669  0.18886139     0.07600
H1320       H  0.06520193  0.27598223  0.20267735     0.02500
H1321       H  0.07500762  0.27828039  0.23169936     0.03000
H1322       H  0.06727449  0.25110283  0.22016195     0.06500
H1323       H  0.12138140  0.32712523  0.25537103     0.05500
H1324       H  0.13898788  0.31192069  0.23562759    -0.00300
H1325       H  0.11515114  0.29791014  0.24902952     0.01200
H1326       H  0.07551454  0.34129033  0.14999530     0.04800
H1327       H  0.05680430  0.35814754  0.16680584     0.06800
H1328       H  0.05066373  0.32846128  0.16259389     0.07700
C1329       C  0.96625189  0.34928443  0.22462614    -0.22000
C1330       C  0.95303078  0.35923079  0.20759895     0.10000
C1331       C  0.96249635  0.37590715  0.19329488     0.10400
C1332       C  0.98537329  0.38179101  0.19589908    -0.16900
C1333       C  0.99887016  0.37141172  0.21252564    -0.27300
C1334       C  0.98906464  0.35533635  0.22747736     0.18700
C1335       C  0.92951169  0.35132895  0.20439271     0.12700
C1336       C  0.94852307  0.38716825  0.17509563    -0.11700
H1337       H  0.99293065  0.39420111  0.18459362     0.13000
C1338       C  0.00190851  0.34460887  0.24683366    -0.22500
H1339       H  0.95870936  0.33665971  0.23571687     0.08600
C1340       C  0.92465538  0.33271147  0.19028061     0.05000
C1341       C  0.90202667  0.32639741  0.18674765    -0.19700
C1342       C  0.88399482  0.33830911  0.19696856    -0.12000
C1343       C  0.88913032  0.35676656  0.21169116     0.13700
C1344       C  0.91188211  0.36298159  0.21514053    -0.22400
C1345       C  0.94339509  0.31969580  0.17872960    -0.05500
H1346       H  0.89848248  0.31224354  0.17556936     0.15200
C1347       C  0.87107682  0.36994246  0.22413999    -0.15700
H1348       H  0.91600521  0.37718021  0.22608156     0.09500
H1349       H  0.00296561  0.32599962  0.24412654     0.07400
H1350       H  0.99277688  0.34788999  0.26299371     0.08600
H1351       H  0.01932787  0.35138166  0.24884453     0.07600
H1352       H  0.93393553  0.39612882  0.18294513     0.02500
H1353       H  0.94205853  0.37422132  0.16303065     0.03000
H1354       H  0.95860684  0.39976524  0.16534161     0.06500
H1355       H  0.93666153  0.30559963  0.16818233     0.05500
H1356       H  0.95493244  0.31234065  0.19167747    -0.00300
H1357       H  0.95323416  0.33121228  0.16751852     0.01200
H1358       H  0.87849433  0.38292792  0.23562335     0.04800
H1359       H  0.86081332  0.35821748  0.23471633     0.06800
H1360       H  0.86004270  0.37900792  0.21187161     0.07700
C1361       C  0.10846638  0.65118396  0.26481842    -0.22000
C1362       C  0.11115608  0.66048703  0.28653166     0.10000
C1363       C  0.10144376  0.64958486  0.30550660     0.10400
C1364       C  0.08820766  0.63014751  0.30219854    -0.16900
C1365       C  0.08421258  0.62165958  0.28033464    -0.27300
C1366       C  0.09496465  0.63184351  0.26144483     0.18700
C1367       C  0.11989534  0.68382777  0.28859072     0.12700
C1368       C  0.10401206  0.65919725  0.32908071    -0.11700
H1369       H  0.07990382  0.62222263  0.31658416     0.13000
C1370       C  0.09097562  0.62339221  0.23763237    -0.22500
H1371       H  0.11575077  0.65992116  0.25036892     0.08600
C1372       C  0.14285204  0.68875261  0.29306799     0.05000
C1373       C  0.14922197  0.71130063  0.29758436    -0.19700
C1374       C  0.13297353  0.72877242  0.29790703    -0.12000
C1375       C  0.11016258  0.72377370  0.29207614     0.13700
C1376       C  0.10400652  0.70136194  0.28744981    -0.22400
C1377       C  0.16037913  0.67020768  0.29341436    -0.05500
H1378       H  0.16672925  0.71514419  0.30171937     0.15200
C1379       C  0.09217209  0.74187996  0.29031910    -0.15700
H1380       H  0.08646096  0.69729730  0.28362590     0.09500
H1381       H  0.09743172  0.60581594  0.23587646     0.07400
H1382       H  0.09985896  0.63404816  0.22486576     0.08600
H1383       H  0.07254502  0.62371067  0.23371266     0.07600
H1384       H  0.09655432  0.67646711  0.32983845     0.02500
H1385       H  0.12226779  0.66014809  0.33361651     0.03000
H1386       H  0.09530430  0.64853794  0.34196622     0.06500
H1387       H  0.17758090  0.67695464  0.29717029     0.05500
H1388       H  0.16090474  0.66171313  0.27659944    -0.00300
H1389       H  0.15600481  0.65750051  0.30661180     0.01200
H1390       H  0.07593215  0.73502659  0.28361434     0.04800
H1391       H  0.09796607  0.75542413  0.27857424     0.06800
H1392       H  0.08849131  0.74914724  0.30728624     0.07700
C1393       C  0.92897345  0.64402203  0.29376846    -0.22000
C1394       C  0.93487232  0.62203525  0.30060849     0.10000
C1395       C  0.91854545  0.60814513  0.31124267     0.10400
C1396       C  0.89656498  0.61659746  0.31478401    -0.16900
C1397       C  0.89058432  0.63864937  0.30799391    -0.27300
C1398       C  0.90694739  0.65245828  0.29705794     0.18700
C1399       C  0.95810976  0.61373759  0.29584194     0.12700
C1400       C  0.92427063  0.58436355  0.31862086    -0.11700
H1401       H  0.88400469  0.60600215  0.32305741     0.13000
C1402       C  0.90166259  0.67565421  0.28765906    -0.22500
H1403       H  0.94154103  0.65449432  0.28534204     0.08600
C1404       C  0.96419248  0.60560553  0.27416500     0.05000
C1405       C  0.98657243  0.59850126  0.27022043    -0.19700
C1406       C  0.00300872  0.59940146  0.28745989    -0.12000
C1407       C  0.99668194  0.60697681  0.30939641     0.13700
C1408       C  0.97432837  0.61423938  0.31322230    -0.22400
C1409       C  0.94706273  0.60449416  0.25521614    -0.05500
H1410       H  0.99142092  0.59267207  0.25345609     0.15200
C1411       C  0.01280094  0.60716694  0.32927795    -0.15700
H1412       H  0.96947234  0.62026495  0.32991275     0.09500
H1413       H  0.90567578  0.67599031  0.26924025     0.07400
H1414       H  0.91224845  0.68856028  0.29640485     0.08600
H1415       H  0.88361265  0.68050836  0.28945304     0.07600
H1416       H  0.93819915  0.58479888  0.33130147     0.02500
H1417       H  0.92976103  0.57423895  0.30370992     0.03000
H1418       H  0.90946670  0.57571815  0.32647374     0.06500
H1419       H  0.95456170  0.59747512  0.23941223     0.05500
H1420       H  0.94059535  0.62176092  0.25142333    -0.00300
H1421       H  0.93265956  0.59345030  0.26030452     0.01200
H1422       H  0.01533395  0.62487587  0.33518338     0.04800
H1423       H  0.02958997  0.59974196  0.32528809     0.06800
H1424       H  0.00545772  0.59704109  0.34337777     0.07700
C1425       C  0.05156989  0.51270440  0.23141332    -0.22000
C1426       C  0.06598048  0.49856391  0.24391501     0.10000
C1427       C  0.07867447  0.50752544  0.26211385     0.10400
C1428       C  0.07507215  0.53010919  0.26870645    -0.16900
C1429       C  0.05948465  0.54389997  0.25709068    -0.27300
C1430       C  0.04844881  0.53542011  0.23751528     0.18700
C1431       C  0.06535183  0.47403015  0.23903992     0.12700
C1432       C  0.09598471  0.49331498  0.27444858    -0.11700
H1433       H  0.08395146  0.53684291  0.28333830     0.13000
C1434       C  0.03345908  0.54980174  0.22257899    -0.22500
H1435       H  0.04225579  0.50579712  0.21711753     0.08600
C1436       C  0.05143137  0.45954265  0.25204152     0.05000
C1437       C  0.04920384  0.43684811  0.24562013    -0.19700
C1438       C  0.05932182  0.42852531  0.22571246    -0.12000
C1439       C  0.07301508  0.44319371  0.21241718     0.13700
C1440       C  0.07624737  0.46569276  0.21960468    -0.22400
C1441       C  0.03769521  0.46830598  0.27181145    -0.05500
H1442       H  0.03854627  0.42568776  0.25566966     0.15200
C1443       C  0.08322373  0.43637115  0.18996954    -0.15700
H1444       H  0.08634929  0.47716090  0.20932909     0.09500
H1445       H  0.01585919  0.54306793  0.22292253     0.07400
H1446       H  0.03986997  0.54919835  0.20486207     0.08600
H1447       H  0.03310745  0.56788174  0.22768838     0.07600
H1448       H  0.10917886  0.48759719  0.26227939     0.02500
H1449       H  0.08791468  0.47818974  0.28218133     0.03000
H1450       H  0.10447437  0.50304688  0.28818406     0.06500
H1451       H  0.02710814  0.45475756  0.27954845     0.05500
H1452       H  0.02616570  0.48198954  0.26594230    -0.00300
H1453       H  0.04897453  0.47512268  0.28521844     0.01200
H1454       H  0.07732538  0.44820578  0.17654229     0.04800
H1455       H  0.07840988  0.41906898  0.18452898     0.06800
H1456       H  0.10201204  0.43733110  0.19105703     0.07700
C1457       C  0.27998092  0.93028308  0.65745767    -0.22000
C1458       C  0.27893447  0.93511334  0.63423859     0.10000
C1459       C  0.28188687  0.91754115  0.61828820     0.10400
C1460       C  0.28583547  0.89535884  0.62601402    -0.16900
C1461       C  0.28714860  0.89041214  0.64934233    -0.27300
C1462       C  0.28399914  0.90819493  0.66529404     0.18700
C1463       C  0.27465999  0.95881464  0.62721109     0.12700
C1464       C  0.28066965  0.92219431  0.59317853    -0.11700
H1465       H  0.28822378  0.88186811  0.61374451     0.13000
C1466       C  0.28414134  0.90412602  0.69058395    -0.22500
H1467       H  0.27760670  0.94397107  0.66951752     0.08600
C1468       C  0.25278989  0.96846597  0.62876930     0.05000
C1469       C  0.24976793  0.99138177  0.62314662    -0.19700
C1470       C  0.26812413  0.00470229  0.61602341    -0.12000
C1471       C  0.28993662  0.99502206  0.61419812     0.13700
C1472       C  0.29298739  0.97212018  0.61988734    -0.22400
C1473       C  0.23266787  0.95452824  0.63616855    -0.05500
H1474       H  0.23306260  0.99898511  0.62434324     0.15200
C1475       C  0.30991300  0.00891304  0.60633827    -0.15700
H1476       H  0.30973441  0.96458723  0.61884698     0.09500
H1477       H  0.27153337  0.89083051  0.69501899     0.07400
H1478       H  0.27967613  0.91968960  0.70022467     0.08600
H1479       H  0.30131078  0.89886070  0.69622077     0.07600
H1480       H  0.29417909  0.93437449  0.58826178     0.02500
H1481       H  0.26384901  0.92950576  0.58888576     0.03000
H1482       H  0.28300646  0.90648661  0.58303348     0.06500
H1483       H  0.21674984  0.96460504  0.63599351     0.05500
H1484       H  0.23532286  0.94818463  0.65370034    -0.00300
H1485       H  0.23047096  0.93988566  0.62451481     0.01200
H1486       H  0.32575720  0.99872899  0.60587866     0.04800
H1487       H  0.31259398  0.02342359  0.61805492     0.06800
H1488       H  0.30665511  0.01547089  0.58897875     0.07700
C1489       C  0.34950532  0.69263048  0.69174405    -0.22000
C1490       C  0.34327747  0.68395305  0.71292961     0.10000
C1491       C  0.32801762  0.69612088  0.72675656     0.10400
C1492       C  0.31992464  0.71726003  0.71934298    -0.16900
C1493       C  0.32686424  0.72649986  0.69845729    -0.27300
C1494       C  0.34136474  0.71358202  0.68413948     0.18700
C1495       C  0.35435559  0.66285435  0.72069249     0.12700
C1496       C  0.32026233  0.68675893  0.74924800    -0.11700
H1497       H  0.30864774  0.72688236  0.73022370     0.13000
C1498       C  0.34820536  0.72134344  0.66067552    -0.22500
H1499       H  0.36125931  0.68309436  0.68128175     0.08600
C1500       C  0.34990988  0.64173539  0.71031186     0.05000
C1501       C  0.36319902  0.62290664  0.71618512    -0.19700
C1502       C  0.38076260  0.62480746  0.73217363    -0.12000
C1503       C  0.38409219  0.64563098  0.74368598     0.13700
C1504       C  0.37111856  0.66448742  0.73746568    -0.22400
C1505       C  0.33142638  0.63914671  0.69282843    -0.05500
H1506       H  0.36067012  0.60695171  0.70738723     0.15200
C1507       C  0.40118382  0.64858934  0.76251357    -0.15700
H1508       H  0.37443115  0.68073844  0.74544336     0.09500
H1509       H  0.35765420  0.70797962  0.65133726     0.07400
H1510       H  0.35955979  0.73632618  0.66176140     0.08600
H1511       H  0.33285413  0.72553039  0.65057648     0.07600
H1512       H  0.33493527  0.68481108  0.76087933     0.02500
H1513       H  0.31212214  0.66996359  0.74663301     0.03000
H1514       H  0.30775247  0.69810821  0.75758747     0.06500
H1515       H  0.32981339  0.62130943  0.68696757     0.05500
H1516       H  0.33514396  0.64982314  0.67777789    -0.00300
H1517       H  0.31492796  0.64438168  0.70026323     0.01200
H1518       H  0.41443992  0.66088359  0.75717476     0.04800
H1519       H  0.40949074  0.63247158  0.76745732     0.06800
H1520       H  0.39250566  0.65525918  0.77785342     0.07700
C1521       C  0.27280610  0.82601856  0.79664093    -0.22000
C1522       C  0.26795595  0.84919087  0.79868272     0.10000
C1523       C  0.26751497  0.86297559  0.77915969     0.10400
C1524       C  0.27223529  0.85332188  0.75799257    -0.16900
C1525       C  0.27802950  0.83029334  0.75581805    -0.27300
C1526       C  0.27827376  0.81637374  0.77549389     0.18700
C1527       C  0.26611890  0.85950237  0.82148412     0.12700
C1528       C  0.26281940  0.88807063  0.78076756    -0.11700
H1529       H  0.27206352  0.86404857  0.74303499     0.13000
C1530       C  0.28570356  0.79189756  0.77543030    -0.22500
H1531       H  0.27351714  0.81565418  0.81183323     0.08600
C1532       C  0.24501265  0.86275274  0.83229012     0.05000
C1533       C  0.24405162  0.87578766  0.85224997    -0.19700
C1534       C  0.26373936  0.88566254  0.86135898    -0.12000
C1535       C  0.28499571  0.88142547  0.85106729     0.13700
C1536       C  0.28589475  0.86834614  0.83126776    -0.22400
C1537       C  0.22355902  0.85303265  0.82237075    -0.05500
H1538       H  0.22780796  0.87911949  0.86021417     0.15200
C1539       C  0.30698021  0.89077441  0.86025964    -0.15700
H1540       H  0.30207155  0.86573036  0.82288833     0.09500
H1541       H  0.27132982  0.78095433  0.78080374     0.07400
H1542       H  0.29988955  0.78966596  0.78764266     0.08600
H1543       H  0.29190441  0.78586409  0.75880819     0.07600
H1544       H  0.27586174  0.89636024  0.79155835     0.02500
H1545       H  0.24581230  0.89091580  0.78833383     0.03000
H1546       H  0.26317382  0.89636231  0.76384086     0.06500
H1547       H  0.20849823  0.85720577  0.83290793     0.05500
H1548       H  0.22500398  0.83428497  0.82132782    -0.00300
H1549       H  0.22074945  0.85996071  0.80508066     0.01200
H1550       H  0.31891629  0.87659134  0.86356359     0.04800
H1551       H  0.30482034  0.90016768  0.87640106     0.06800
H1552       H  0.31468215  0.90240341  0.84758212     0.07700
C1553       C  0.59395389  0.29095807  0.94027438    -0.22000
C1554       C  0.61053210  0.28321883  0.95545778     0.10000
C1555       C  0.63319042  0.28087077  0.94815862     0.10400
C1556       C  0.63877726  0.28615089  0.92566209    -0.16900
C1557       C  0.62218961  0.29353973  0.91023949    -0.27300
C1558       C  0.59949142  0.29620717  0.91768747     0.18700
C1559       C  0.60383740  0.27742588  0.97893093     0.12700
C1560       C  0.65151304  0.27301254  0.96417064    -0.11700
H1561       H  0.65616885  0.28424538  0.92000009     0.13000
C1562       C  0.58123081  0.30528888  0.90224611    -0.22500
H1563       H  0.57663332  0.29285474  0.94616100     0.08600
C1564       C  0.60053278  0.29433917  0.99554750     0.05000
C1565       C  0.59509317  0.28785559  0.01779893    -0.19700
C1566       C  0.59296285  0.26490344  0.02368913    -0.12000
C1567       C  0.59625981  0.24798181  0.00703043     0.13700
C1568       C  0.60152021  0.25450003  0.98477768    -0.22400
C1569       C  0.60314620  0.31911542  0.98986355    -0.05500
H1570       H  0.59257837  0.30072108  0.03072659     0.15200
C1571       C  0.59480336  0.22298859  0.01222064    -0.15700
H1572       H  0.60418677  0.24159243  0.97193166     0.09500
H1573       H  0.56488231  0.30755108  0.91135646     0.07400
H1574       H  0.57819164  0.29331664  0.88803842     0.08600
H1575       H  0.58643606  0.32205715  0.89539574     0.07600
H1576       H  0.64760887  0.25566401  0.97036276     0.02500
H1577       H  0.65259104  0.28475785  0.97886696     0.03000
H1578       H  0.66839216  0.27254088  0.95579036     0.06500
H1579       H  0.60033643  0.33006149  0.00495204     0.05500
H1580       H  0.59061428  0.32399838  0.97668036    -0.00300
H1581       H  0.62054808  0.32237584  0.98339942     0.01200
H1582       H  0.58127587  0.21515527  0.00169041     0.04800
H1583       H  0.59095996  0.21940293  0.03028167     0.06800
H1584       H  0.61125756  0.21479083  0.00809933     0.07700
C1585       C  0.49233150  0.35909961  0.76896501    -0.22000
C1586       C  0.49611290  0.35282236  0.79158170     0.10000
C1587       C  0.47800969  0.35328704  0.80723510     0.10400
C1588       C  0.45637056  0.35992866  0.79980959    -0.16900
C1589       C  0.45254021  0.36620652  0.77713830    -0.27300
C1590       C  0.47072807  0.36565824  0.76146459     0.18700
C1591       C  0.51935726  0.34627607  0.79847047     0.12700
C1592       C  0.48155661  0.34671983  0.83168101    -0.11700
H1593       H  0.44233435  0.36020499  0.81170843     0.13000
C1594       C  0.46791096  0.37121268  0.73664464    -0.22500
H1595       H  0.50632820  0.35865870  0.75702330     0.08600
C1596       C  0.52729622  0.32385241  0.79606843     0.05000
C1597       C  0.54982899  0.31877975  0.80194877    -0.19700
C1598       C  0.56472062  0.33572390  0.80979363    -0.12000
C1599       C  0.55652957  0.35818306  0.81242726     0.13700
C1600       C  0.53391601  0.36311136  0.80676843    -0.22400
C1601       C  0.51202345  0.30537777  0.78715369    -0.05500
H1602       H  0.55597719  0.30156394  0.79998855     0.15200
C1603       C  0.57122230  0.37694930  0.82174564    -0.15700
H1604       H  0.52755120  0.38025481  0.80861241     0.09500
H1605       H  0.47323151  0.35641961  0.72626736     0.07400
H1606       H  0.47877495  0.38596776  0.73223544     0.08600
H1607       H  0.45020539  0.37530431  0.73190722     0.07600
H1608       H  0.49432696  0.35812535  0.83955450     0.02500
H1609       H  0.48769019  0.32895109  0.83268391     0.03000
H1610       H  0.46560024  0.34798764  0.84164181     0.06500
H1611       H  0.52089014  0.28877738  0.78634669     0.05500
H1612       H  0.50618845  0.30975006  0.76977943    -0.00300
H1613       H  0.49703592  0.30348189  0.79841293     0.01200
H1614       H  0.56152479  0.39293822  0.82401731     0.04800
H1615       H  0.58537792  0.38059847  0.80987543     0.06800
H1616       H  0.57810599  0.37194225  0.83856000     0.07700
C1617       C  0.66566805  0.36386503  0.71443332    -0.22000
C1618       C  0.68347961  0.35323413  0.70295045     0.10000
C1619       C  0.69465642  0.33473467  0.71314353     0.10400
C1620       C  0.68780168  0.32738865  0.73482488    -0.16900
C1621       C  0.67011336  0.33826061  0.74672978    -0.27300
C1622       C  0.65874347  0.35674664  0.73606354     0.18700
C1623       C  0.69065154  0.36302383  0.68087459     0.12700
C1624       C  0.71370665  0.32274101  0.70108563    -0.11700
H1625       H  0.69660794  0.31326102  0.74262212     0.13000
C1626       C  0.63920352  0.36925301  0.74693392    -0.22500
H1627       H  0.65732022  0.37816633  0.70643116     0.08600
C1628       C  0.67719429  0.36072035  0.66116526     0.05000
C1629       C  0.68208964  0.37407250  0.64200105    -0.19700
C1630       C  0.69997101  0.38981675  0.64227689    -0.12000
C1631       C  0.71445563  0.39081954  0.66143692     0.13700
C1632       C  0.70952148  0.37749644  0.68053442    -0.22400
C1633       C  0.65729490  0.34467621  0.66063278    -0.05500
H1634       H  0.67109025  0.37323706  0.62727818     0.15200
C1635       C  0.73497742  0.40607418  0.66245954    -0.15700
H1636       H  0.71990371  0.37915648  0.69564126     0.09500
H1637       H  0.63193568  0.38232354  0.73546854     0.07400
H1638       H  0.64506210  0.37820194  0.76244432     0.08600
H1639       H  0.62536065  0.35717423  0.75115369     0.07600
H1640       H  0.72786517  0.33475421  0.69789591     0.02500
H1641       H  0.70750355  0.31595453  0.68463226     0.03000
H1642       H  0.72041789  0.30836306  0.71124718     0.06500
H1643       H  0.64882328  0.34463270  0.64379093     0.05500
H1644       H  0.64454720  0.34972127  0.67353997    -0.00300
H1645       H  0.66320512  0.32717496  0.66428875     0.01200
H1646       H  0.73273952  0.41876637  0.67620275     0.04800
H1647       H  0.73813643  0.41519476  0.64631168     0.06800
H1648       H  0.75028312  0.39573665  0.66615630     0.07700
C1649       C  0.77135408  0.28624267  0.84135530    -0.22000
C1650       C  0.77491186  0.28044329  0.86415160     0.10000
C1651       C  0.75614257  0.27740500  0.87868734     0.10400
C1652       C  0.73420410  0.28110541  0.87033087    -0.16900
C1653       C  0.73047990  0.28776196  0.84772879    -0.27300
C1654       C  0.74929766  0.28990572  0.83289758     0.18700
C1655       C  0.79829931  0.27931098  0.87328005     0.12700
C1656       C  0.75932015  0.27073705  0.90319799    -0.11700
H1657       H  0.71984777  0.27928469  0.88169638     0.13000
C1658       C  0.74639300  0.29718898  0.80856794    -0.22500
H1659       H  0.78592336  0.28855917  0.83036519     0.08600
C1660       C  0.81062506  0.25882204  0.87383510     0.05000
C1661       C  0.83074524  0.25767626  0.88659212    -0.19700
C1662       C  0.83859993  0.27655776  0.89882362    -0.12000
C1663       C  0.82717109  0.29755130  0.89669706     0.13700
C1664       C  0.80709402  0.29861839  0.88401049    -0.22400
C1665       C  0.80201447  0.23802776  0.86175610    -0.05500
H1666       H  0.83962173  0.24164578  0.88815126     0.15200
C1667       C  0.83546743  0.31899682  0.90791369    -0.15700
H1668       H  0.79769403  0.31441290  0.88327769     0.09500
H1669       H  0.76297102  0.29887202  0.79974791     0.07400
H1670       H  0.73773208  0.31389697  0.80788483     0.08600
H1671       H  0.73619453  0.28439574  0.79923037     0.07600
H1672       H  0.76946142  0.28384126  0.91217055     0.02500
H1673       H  0.76830781  0.25422460  0.90418548     0.03000
H1674       H  0.74283879  0.26896043  0.91217663     0.06500
H1675       H  0.81365843  0.22338471  0.86396163     0.05500
H1676       H  0.80048779  0.24161177  0.84331845    -0.00300
H1677       H  0.78511422  0.23318463  0.86853689     0.01200
H1678       H  0.83785502  0.33236319  0.89484516     0.04800
H1679       H  0.85193524  0.31677083  0.91673020     0.06800
H1680       H  0.82270240  0.32490601  0.92044867     0.07700
C1681       C  0.74897653  0.47022735  0.12303069    -0.22000
C1682       C  0.77105148  0.46284040  0.12792370     0.10000
C1683       C  0.78944972  0.47804180  0.12593717     0.10400
C1684       C  0.78529375  0.50054726  0.11951872    -0.16900
C1685       C  0.76321986  0.50802887  0.11477537    -0.27300
C1686       C  0.74483193  0.49273499  0.11641955     0.18700
C1687       C  0.77458900  0.43916249  0.13537528     0.12700
C1688       C  0.81342027  0.47048188  0.13059078    -0.11700
H1689       H  0.79930865  0.51241015  0.11817482     0.13000
C1690       C  0.72086180  0.50029407  0.11179951    -0.22500
H1691       H  0.73498264  0.45838898  0.12460679     0.08600
C1692       C  0.77444641  0.43329779  0.15856299     0.05000
C1693       C  0.77898099  0.41083221  0.16490843    -0.19700
C1694       C  0.78334166  0.39397570  0.14859452    -0.12000
C1695       C  0.78310435  0.39992276  0.12523477     0.13700
C1696       C  0.77877457  0.42249954  0.11899474    -0.22400
C1697       C  0.76952088  0.45078228  0.17655477    -0.05500
H1698       H  0.77899133  0.40637932  0.18277503     0.15200
C1699       C  0.78817209  0.38291429  0.10680201    -0.15700
H1700       H  0.77889067  0.42730516  0.10121399     0.09500
H1701       H  0.70848974  0.48632114  0.11448079     0.07400
H1702       H  0.71928425  0.50608749  0.09395083     0.08600
H1703       H  0.71632968  0.51445142  0.12337134     0.07600
H1704       H  0.81804718  0.45651437  0.11883266     0.02500
H1705       H  0.81490552  0.46437275  0.14834341     0.03000
H1706       H  0.82577997  0.48451665  0.12817840     0.06500
H1707       H  0.77001152  0.44334408  0.19387125     0.05500
H1708       H  0.75236733  0.45805022  0.17378550    -0.00300
H1709       H  0.78229185  0.46460739  0.17576928     0.01200
H1710       H  0.77484025  0.36961296  0.10644317     0.04800
H1711       H  0.80501610  0.37503749  0.10981435     0.06800
H1712       H  0.78854708  0.39094923  0.08974784     0.07700
C1713       C  0.78962209  0.60646007  0.16563026    -0.22000
C1714       C  0.77056763  0.61375196  0.17782854     0.10000
C1715       C  0.74861106  0.60977542  0.16919080     0.10400
C1716       C  0.74614759  0.59744870  0.14897629    -0.16900
C1717       C  0.76517622  0.58884972  0.13758179    -0.27300
C1718       C  0.78720183  0.59390291  0.14561287     0.18700
C1719       C  0.77402658  0.62273064  0.20094729     0.12700
C1720       C  0.72786288  0.61754868  0.18191351    -0.11700
H1721       H  0.72931823  0.59335984  0.14275001     0.13000
C1722       C  0.80840585  0.58564507  0.13392763    -0.22500
H1723       H  0.80644635  0.60959318  0.17239779     0.08600
C1724       C  0.77748610  0.60778299  0.21926839     0.05000
C1725       C  0.78189481  0.61666079  0.24080874    -0.19700
C1726       C  0.78287343  0.64017873  0.24458808    -0.12000
C1727       C  0.77868193  0.65520600  0.22625809     0.13700
C1728       C  0.77437159  0.64620889  0.20456689    -0.22400
C1729       C  0.77659282  0.58240981  0.21607938    -0.05500
H1730       H  0.78476831  0.60508453  0.25480067     0.15200
C1731       C  0.77951868  0.68059346  0.22912179    -0.15700
H1732       H  0.77157200  0.65746918  0.19030086     0.09500
H1733       H  0.81796190  0.57429509  0.14553311     0.07400
H1734       H  0.81927988  0.60038601  0.12949283     0.08600
H1735       H  0.80483061  0.57621002  0.11804298     0.07600
H1736       H  0.72825645  0.63628150  0.18379930     0.02500
H1737       H  0.72747702  0.60961568  0.19900376     0.03000
H1738       H  0.71198324  0.61285374  0.17289809     0.06500
H1739       H  0.77935690  0.57320674  0.23229479     0.05500
H1740       H  0.78996031  0.57698770  0.20397228    -0.00300
H1741       H  0.75971410  0.57741833  0.20933988     0.01200
H1742       H  0.79636277  0.68575707  0.23582318     0.04800
H1743       H  0.76597431  0.68614786  0.24096756     0.06800
H1744       H  0.77679958  0.68955910  0.21276306     0.07700
C1745       C  0.71623511  0.59778920  0.82177914    -0.22000
C1746       C  0.69869994  0.61379029  0.82162946     0.10000
C1747       C  0.68575244  0.61744090  0.84143429     0.10400
C1748       C  0.68956608  0.60374241  0.86051517    -0.16900
C1749       C  0.70599859  0.58652748  0.86009310    -0.27300
C1750       C  0.72028450  0.58428653  0.84089995     0.18700
C1751       C  0.69213688  0.62398277  0.79970215     0.12700
C1752       C  0.66756091  0.63535784  0.84217048    -0.11700
H1753       H  0.67886950  0.60565016  0.87536431     0.13000
C1754       C  0.73979617  0.56778548  0.83995596    -0.22500
H1755       H  0.72630758  0.59525439  0.80657556     0.08600
C1756       C  0.70447090  0.64184746  0.78961094     0.05000
C1757       C  0.69780260  0.64991317  0.76816883    -0.19700
C1758       C  0.67914305  0.64038684  0.75683121    -0.12000
C1759       C  0.66709094  0.62221082  0.76684111     0.13700
C1760       C  0.67367579  0.61437064  0.78823322    -0.22400
C1761       C  0.72442508  0.65243517  0.80155039    -0.05500
H1762       H  0.70702713  0.66374702  0.76030136     0.15200
C1763       C  0.64769292  0.61016744  0.75520645    -0.15700
H1764       H  0.66457126  0.60032881  0.79590416     0.09500
H1765       H  0.75567667  0.57710453  0.83590157     0.07400
H1766       H  0.73661371  0.55500486  0.82647968     0.08600
H1767       H  0.74262525  0.55882259  0.85624355     0.07600
H1768       H  0.65427326  0.63162488  0.82935311     0.02500
H1769       H  0.67517285  0.65220152  0.83850000     0.03000
H1770       H  0.65928101  0.63619738  0.85908906     0.06500
H1771       H  0.73198336  0.66642388  0.79142234     0.05500
H1772       H  0.73775589  0.63946897  0.80446615    -0.00300
H1773       H  0.71888890  0.65945922  0.81813705     0.01200
H1774       H  0.65185833  0.59188129  0.75341333     0.04800
H1775       H  0.64401380  0.61680405  0.73800491     0.06800
H1776       H  0.63208536  0.61183466  0.76563057     0.07700
C1777       C  0.67390259  0.42266043  0.88482888    -0.22000
C1778       C  0.68095272  0.43796634  0.86807700     0.10000
C1779       C  0.68195332  0.43098745  0.84523043     0.10400
C1780       C  0.67547758  0.40882235  0.83955028    -0.16900
C1781       C  0.66818450  0.39342103  0.85622775    -0.27300
C1782       C  0.66725622  0.40049069  0.87923148     0.18700
C1783       C  0.68610364  0.46160920  0.87463821     0.12700
C1784       C  0.68975740  0.44698555  0.82687369    -0.11700
H1785       H  0.67630611  0.40340545  0.82198742     0.13000
C1786       C  0.65838535  0.38576835  0.89821705    -0.22500
H1787       H  0.67296881  0.42828474  0.90233242     0.08600
C1788       C  0.66874491  0.47802780  0.87604902     0.05000
C1789       C  0.67439542  0.50045257  0.88160303    -0.19700
C1790       C  0.69695364  0.50669108  0.88584982    -0.12000
C1791       C  0.71431168  0.49025766  0.88455394     0.13700
C1792       C  0.70866357  0.46780424  0.87896059    -0.22400
C1793       C  0.64434535  0.47187181  0.87148129    -0.05500
H1794       H  0.66119295  0.51322499  0.88260316     0.15200
C1795       C  0.73874716  0.49655932  0.88861671    -0.15700
H1796       H  0.72187131  0.45505999  0.87772174     0.09500
H1797       H  0.64444825  0.39478298  0.90713369     0.07400
H1798       H  0.67223351  0.38238438  0.91054091     0.08600
H1799       H  0.65131969  0.36938427  0.89241430     0.07600
H1800       H  0.70739689  0.45260544  0.83041008     0.02500
H1801       H  0.67846815  0.46203921  0.82630322     0.03000
H1802       H  0.68950089  0.43881039  0.80988885     0.06500
H1803       H  0.63295142  0.48677390  0.87319964     0.05500
H1804       H  0.63867644  0.45873261  0.88373677    -0.00300
H1805       H  0.64261791  0.46515873  0.85395904     0.01200
H1806       H  0.74082731  0.50314883  0.90614186     0.04800
H1807       H  0.74402133  0.50983498  0.87632236     0.06800
H1808       H  0.75019692  0.48174489  0.88653914     0.07700
C1809       C  0.70637775  0.56291806  0.98322905    -0.22000
C1810       C  0.72621517  0.57512894  0.98801871     0.10000
C1811       C  0.73867589  0.58497574  0.97008812     0.10400
C1812       C  0.73195897  0.58081481  0.94762231    -0.16900
C1813       C  0.71278656  0.56746097  0.94275015    -0.27300
C1814       C  0.69907034  0.55959441  0.96087334     0.18700
C1815       C  0.73478811  0.57500600  0.01162238     0.12700
C1816       C  0.75908363  0.59972624  0.97461875    -0.11700
H1817       H  0.74226307  0.58724501  0.93381412     0.13000
C1818       C  0.67653505  0.54795088  0.95738375    -0.22500
H1819       H  0.69669145  0.55556990  0.99704966     0.08600
C1820       C  0.72306104  0.58569540  0.02956704     0.05000
C1821       C  0.73020911  0.58194706  0.05199759    -0.19700
C1822       C  0.74895264  0.56801180  0.05674593    -0.12000
C1823       C  0.76180100  0.55899365  0.03855712     0.13700
C1824       C  0.75415682  0.56207763  0.01631107    -0.22400
C1825       C  0.70304119  0.60092684  0.02507785    -0.05500
H1826       H  0.72061488  0.58920053  0.06591722     0.15200
C1827       C  0.78376109  0.54628550  0.04187413    -0.15700
H1828       H  0.76324842  0.55404056  0.00247802     0.09500
H1829       H  0.66325257  0.55698075  0.96723627     0.07400
H1830       H  0.67756117  0.53016233  0.96348740     0.08600
H1831       H  0.67093740  0.54798053  0.93943474     0.07600
H1832       H  0.77260453  0.58982522  0.98315039     0.02500
H1833       H  0.75409252  0.61416916  0.98563604     0.03000
H1834       H  0.76628386  0.60674176  0.95866836     0.06500
H1835       H  0.69639981  0.60853871  0.04099248     0.05500
H1836       H  0.68905480  0.59119791  0.01707699    -0.00300
H1837       H  0.70823402  0.61493258  0.01358908     0.01200
H1838       H  0.78166035  0.52845120  0.03618333     0.04800
H1839       H  0.78971802  0.54636162  0.05970756     0.06800
H1840       H  0.79730188  0.55440983  0.03157337     0.07700
C1841       C  0.31018993  0.79194545  0.38524911    -0.22000
C1842       C  0.30200002  0.77351854  0.37268309     0.10000
C1843       C  0.31471722  0.75329919  0.37157307     0.10400
C1844       C  0.33451029  0.75131147  0.38472668    -0.16900
C1845       C  0.34181578  0.76923913  0.39864550    -0.27300
C1846       C  0.33013600  0.79018598  0.39801042     0.18700
C1847       C  0.27909424  0.77541290  0.36265898     0.12700
C1848       C  0.30716926  0.73381873  0.35685231    -0.11700
H1849       H  0.34370785  0.73539588  0.38497913     0.13000
C1850       C  0.33816130  0.81093326  0.41066613    -0.22500
H1851       H  0.30058538  0.80762474  0.38560396     0.08600
C1852       C  0.25977874  0.76877103  0.37516555     0.05000
C1853       C  0.23815203  0.77370417  0.36664626    -0.19700
C1854       C  0.23537634  0.78519749  0.34598872    -0.12000
C1855       C  0.25476634  0.79153377  0.33324357     0.13700
C1856       C  0.27643368  0.78639881  0.34174378    -0.22400
C1857       C  0.26198725  0.75721691  0.39789607    -0.05500
H1858       H  0.22327067  0.76900077  0.37640951     0.15200
C1859       C  0.25344098  0.80484187  0.31142682    -0.15700
H1860       H  0.29137340  0.79181078  0.33244957     0.09500
H1861       H  0.32540442  0.81573267  0.42367264     0.07400
H1862       H  0.34023099  0.82521970  0.39855413     0.08600
H1863       H  0.35475660  0.80842081  0.41915155     0.07600
H1864       H  0.30631464  0.73946836  0.33889404     0.02500
H1865       H  0.29014910  0.72779556  0.36219359     0.03000
H1866       H  0.31912325  0.71929882  0.35788662     0.06500
H1867       H  0.24515034  0.75341734  0.40548492     0.05500
H1868       H  0.27141114  0.76833150  0.40984378    -0.00300
H1869       H  0.27126600  0.74096785  0.39598779     0.01200
H1870       H  0.26302428  0.82096262  0.31334071     0.04800
H1871       H  0.23589993  0.80929728  0.30643547     0.06800
H1872       H  0.26117115  0.79482550  0.29747018     0.07700
C1873       C  0.36062469  0.79110143  0.51202727    -0.22000
C1874       C  0.35349272  0.77265696  0.52522246     0.10000
C1875       C  0.35274028  0.75074055  0.51561734     0.10400
C1876       C  0.35882334  0.74782732  0.49276814    -0.16900
C1877       C  0.36556837  0.76636010  0.47946748    -0.27300
C1878       C  0.36677765  0.78823289  0.48924405     0.18700
C1879       C  0.34597928  0.77699535  0.54876939     0.12700
C1880       C  0.34560409  0.73050647  0.52949791    -0.11700
H1881       H  0.35809026  0.73110200  0.48515307     0.13000
C1882       C  0.37443313  0.80886071  0.47617672    -0.22500
H1883       H  0.36118486  0.80789506  0.51952514     0.08600
C1884       C  0.36162439  0.78057979  0.56649004     0.05000
C1885       C  0.35355377  0.78595898  0.58823804    -0.19700
C1886       C  0.33015775  0.78787198  0.59268438    -0.12000
C1887       C  0.31450123  0.78351480  0.57489961     0.13700
C1888       C  0.32268022  0.77829244  0.55315573    -0.22400
C1889       C  0.38678741  0.77856180  0.56245007    -0.05500
H1890       H  0.36564151  0.78897523  0.60177603     0.15200
C1891       C  0.28921319  0.78344568  0.57871130    -0.15700
H1892       H  0.31084378  0.77527429  0.53939108     0.09500
H1893       H  0.38945618  0.81644646  0.48467420     0.07400
H1894       H  0.36055252  0.82158090  0.47584131     0.08600
H1895       H  0.37923591  0.80500874  0.45840512     0.07600
H1896       H  0.32791877  0.73277376  0.53556271     0.02500
H1897       H  0.35706404  0.72865589  0.54434330     0.03000
H1898       H  0.34632550  0.71457249  0.51946065     0.06500
H1899       H  0.39666267  0.78149636  0.57824130     0.05500
H1900       H  0.39229535  0.79126118  0.54967737    -0.00300
H1901       H  0.39080390  0.76127932  0.55612762     0.01200
H1902       H  0.27978147  0.77816310  0.56326163     0.04800
H1903       H  0.28324615  0.80068556  0.58329847     0.06800
H1904       H  0.28498865  0.77126656  0.59242740     0.07700
C1905       C  0.63457822  0.69684576  0.55751658    -0.22000
C1906       C  0.61197828  0.69390284  0.55081198     0.10000
C1907       C  0.59580284  0.68613842  0.56666572     0.10400
C1908       C  0.60263980  0.68151940  0.58903127    -0.16900
C1909       C  0.62527942  0.68454986  0.59585487    -0.27300
C1910       C  0.64156855  0.69197542  0.57973990     0.18700
C1911       C  0.60589364  0.69804476  0.52678827     0.12700
C1912       C  0.57133379  0.68295457  0.55998038    -0.11700
H1913       H  0.59021874  0.67573943  0.60132063     0.13000
C1914       C  0.66660886  0.69390519  0.58484667    -0.22500
H1915       H  0.64698892  0.70242865  0.54511451     0.08600
C1916       C  0.60166370  0.72009445  0.51850805     0.05000
C1917       C  0.59612886  0.72305970  0.49550790    -0.19700
C1918       C  0.59495144  0.70446508  0.48068065    -0.12000
C1919       C  0.59903002  0.68235189  0.48907294     0.13700
C1920       C  0.60457384  0.67946415  0.51202516    -0.22400
C1921       C  0.60296103  0.74039780  0.53396351    -0.05500
H1922       H  0.59295654  0.73995356  0.48897785     0.15200
C1923       C  0.59731001  0.66141691  0.47446154    -0.15700
H1924       H  0.60779892  0.66255530  0.51851242     0.09500
H1925       H  0.67202126  0.71187935  0.58325510     0.07400
H1926       H  0.67631728  0.68356263  0.57244202     0.08600
H1927       H  0.67135644  0.68769082  0.60191276     0.07600
H1928       H  0.57004899  0.67010576  0.54626599     0.02500
H1929       H  0.56427424  0.69929223  0.55382308     0.03000
H1930       H  0.56083050  0.67708969  0.57449700     0.06500
H1931       H  0.59896258  0.75637694  0.52481695     0.05500
H1932       H  0.62034294  0.74192427  0.54107570    -0.00300
H1933       H  0.59063579  0.73842986  0.54808429     0.01200
H1934       H  0.61402133  0.65274641  0.47394198     0.04800
H1935       H  0.59203960  0.66508650  0.45679124     0.06800
H1936       H  0.58455890  0.64965902  0.48184723     0.07700
C1937       C  0.65047453  0.72184780  0.37672072    -0.22000
C1938       C  0.65951683  0.70006301  0.37379831     0.10000
C1939       C  0.64840295  0.68119426  0.38350860     0.10400
C1940       C  0.62874799  0.68462700  0.39646241    -0.16900
C1941       C  0.62025051  0.70650557  0.40025036    -0.27300
C1942       C  0.63102819  0.72536667  0.39001048     0.18700
C1943       C  0.68242895  0.69773844  0.36382681     0.12700
C1944       C  0.65791347  0.65759121  0.38114328    -0.11700
H1945       H  0.62051018  0.67028694  0.40454036     0.13000
C1946       C  0.62328949  0.74944906  0.39372284    -0.22500
H1947       H  0.65932251  0.73631025  0.36955530     0.08600
C1948       C  0.68601964  0.69234966  0.34078381     0.05000
C1949       C  0.70828035  0.68833913  0.33307741    -0.19700
C1950       C  0.72687823  0.68987159  0.34795933    -0.12000
C1951       C  0.72320076  0.69701160  0.37064717     0.13700
C1952       C  0.70101189  0.70039961  0.37833737    -0.22400
C1953       C  0.66639170  0.69069205  0.32451338    -0.05500
H1954       H  0.71108532  0.68323953  0.31562733     0.15200
C1955       C  0.74216951  0.70180057  0.38716278    -0.15700
H1956       H  0.69814302  0.70513389  0.39590160     0.09500
H1957       H  0.61878427  0.75721014  0.37715711     0.07400
H1958       H  0.63726274  0.75941116  0.40152890     0.08600
H1959       H  0.60835270  0.75074742  0.40504237     0.07600
H1960       H  0.67519804  0.65689594  0.38861043     0.02500
H1961       H  0.65884480  0.65283027  0.36295369     0.03000
H1962       H  0.64720435  0.64483005  0.38997394     0.06500
H1963       H  0.67214468  0.68640716  0.30708167     0.05500
H1964       H  0.65736434  0.70720333  0.32384228    -0.00300
H1965       H  0.65436628  0.67735803  0.33018376     0.01200
H1966       H  0.74010746  0.71915109  0.39421290     0.04800
H1967       H  0.75921467  0.70125311  0.37928361     0.06800
H1968       H  0.74146012  0.68939954  0.40133007     0.07700
C1969       C  0.50897239  0.74445657  0.40266240    -0.22000
C1970       C  0.49225810  0.73059631  0.41240663     0.10000
C1971       C  0.49878932  0.71117858  0.42481243     0.10400
C1972       C  0.52190015  0.70671924  0.42805864    -0.16900
C1973       C  0.53868191  0.72155184  0.41988568    -0.27300
C1974       C  0.53211168  0.74065238  0.40682296     0.18700
C1975       C  0.46841835  0.73860111  0.41278344     0.12700
C1976       C  0.48146121  0.69577754  0.43567544    -0.11700
H1977       H  0.52693492  0.69197389  0.43783697     0.13000
C1978       C  0.54860242  0.75834836  0.39845809    -0.22500
H1979       H  0.50384715  0.75937099  0.39318884     0.08600
C1980       C  0.46211753  0.75710090  0.42663751     0.05000
C1981       C  0.43912061  0.76224995  0.42935392    -0.19700
C1982       C  0.42210222  0.74884620  0.41941050    -0.12000
C1983       C  0.42842065  0.73048463  0.40520012     0.13700
C1984       C  0.45156770  0.72605404  0.40157031    -0.22400
C1985       C  0.47950916  0.77075530  0.43957412    -0.05500
H1986       H  0.43431153  0.77641545  0.44006332     0.15200
C1987       C  0.41155123  0.71424663  0.39485398    -0.15700
H1988       H  0.45649756  0.71180318  0.39103222     0.09500
H1989       H  0.54335232  0.77528649  0.40482149     0.07400
H1990       H  0.54850929  0.75864137  0.37961619     0.08600
H1991       H  0.56618450  0.75558983  0.40435121     0.07600
H1992       H  0.47069861  0.68784176  0.42241741     0.02500
H1993       H  0.47060261  0.70564910  0.44748924     0.03000
H1994       H  0.48959885  0.68191554  0.44550284     0.06500
H1995       H  0.47145674  0.78384900  0.45047033     0.05500
H1996       H  0.49101097  0.77961280  0.42758971    -0.00300
H1997       H  0.48958674  0.75938676  0.45071473     0.01200
H1998       H  0.41238643  0.71543042  0.37606441     0.04800
H1999       H  0.39385915  0.71730620  0.40030043     0.06800
H2000       H  0.41584376  0.69664680  0.40001862     0.07700
C2001       C  0.11981955  0.75301775  0.48713844    -0.22000
C2002       C  0.10775770  0.76944724  0.47493286     0.10000
C2003       C  0.08950061  0.78089540  0.48528074     0.10400
C2004       C  0.08397548  0.77597869  0.50789097    -0.16900
C2005       C  0.09625831  0.75982108  0.52037418    -0.27300
C2006       C  0.11417478  0.74784443  0.50969398     0.18700
C2007       C  0.11490268  0.77495851  0.45151293     0.12700
C2008       C  0.07615603  0.79859464  0.47256797    -0.11700
H2009       H  0.07029855  0.78515971  0.51605869     0.13000
C2010       C  0.12730960  0.72918550  0.52123769    -0.22500
H2011       H  0.13371756  0.74414052  0.47896639     0.08600
C2012       C  0.13229303  0.79078927  0.44735669     0.05000
C2013       C  0.13799163  0.79622326  0.42492059    -0.19700
C2014       C  0.12671654  0.78621738  0.40634362    -0.12000
C2015       C  0.10930297  0.77002588  0.41070819     0.13700
C2016       C  0.10368958  0.76467719  0.43327875    -0.22400
C2017       C  0.14468399  0.80212634  0.46665476    -0.05500
H2018       H  0.15128282  0.80857980  0.42197008     0.15200
C2019       C  0.09664882  0.75797858  0.39198804    -0.15700
H2020       H  0.09035054  0.75249535  0.43680295     0.09500
H2021       H  0.14539788  0.73425520  0.52280655     0.07400
H2022       H  0.12626507  0.71348346  0.51087259     0.08600
H2023       H  0.12073280  0.72495809  0.53832663     0.07600
H2024       H  0.06809041  0.79082904  0.45741022     0.02500
H2025       H  0.08762908  0.81249172  0.46705135     0.03000
H2026       H  0.06255401  0.80608295  0.48324577     0.06500
H2027       H  0.15774295  0.81423304  0.46046056     0.05500
H2028       H  0.15330992  0.78912794  0.47720154    -0.00300
H2029       H  0.13245957  0.81165201  0.47736013     0.01200
H2030       H  0.10879063  0.74871104  0.38096168     0.04800
H2031       H  0.08683253  0.77039625  0.38179777     0.06800
H2032       H  0.08436587  0.74537721  0.39877163     0.07700
C2033       C  0.14674815  0.74969491  0.62855690    -0.22000
C2034       C  0.15695147  0.77113163  0.62879173     0.10000
C2035       C  0.14704969  0.78920720  0.61666208     0.10400
C2036       C  0.12778565  0.78505880  0.60337639    -0.16900
C2037       C  0.11841097  0.76323236  0.60187739    -0.27300
C2038       C  0.12762443  0.74541346  0.61508529     0.18700
C2039       C  0.17995168  0.77331525  0.63834407     0.12700
C2040       C  0.15732964  0.81261976  0.61711470    -0.11700
H2041       H  0.12056427  0.79866052  0.59331264     0.13000
C2042       C  0.11875308  0.72144116  0.61436640    -0.22500
H2043       H  0.15460493  0.73587933  0.63781867     0.08600
C2044       C  0.18392491  0.77863011  0.66131296     0.05000
C2045       C  0.20632808  0.78227977  0.66865492    -0.19700
C2046       C  0.22458743  0.78052020  0.65341550    -0.12000
C2047       C  0.22054398  0.77330269  0.63086135     0.13700
C2048       C  0.19822929  0.77023812  0.62352813    -0.22400
C2049       C  0.16453709  0.78093008  0.67777169    -0.05500
H2050       H  0.20950179  0.78745514  0.68602024     0.15200
C2051       C  0.23928677  0.76817713  0.61420413    -0.15700
H2052       H  0.19501303  0.76544484  0.60603934     0.09500
H2053       H  0.11275636  0.71645445  0.63152609     0.07400
H2054       H  0.13258520  0.70978741  0.60911587     0.08600
H2055       H  0.10460414  0.71912686  0.60227467     0.07600
H2056       H  0.17485429  0.81212175  0.61022064     0.02500
H2057       H  0.15783814  0.81896780  0.63484867     0.03000
H2058       H  0.14734583  0.82481377  0.60678640     0.06500
H2059       H  0.17059354  0.78519222  0.69510913     0.05500
H2060       H  0.15503105  0.76468137  0.67867771    -0.00300
H2061       H  0.15289384  0.79456970  0.67204411     0.01200
H2062       H  0.23693108  0.75080783  0.60728139     0.04800
H2063       H  0.25636448  0.76859542  0.62203033     0.06800
H2064       H  0.23871027  0.78051082  0.59997439     0.07700
C2065       C  0.77126982  0.69691691  0.65643079    -0.22000
C2066       C  0.77314948  0.70262003  0.63344661     0.10000
C2067       C  0.75340937  0.70512920  0.62013404     0.10400
C2068       C  0.73214649  0.70098889  0.62998417    -0.16900
C2069       C  0.73026702  0.69421908  0.65275895    -0.27300
C2070       C  0.75001956  0.69294682  0.66638336     0.18700
C2071       C  0.79598658  0.70454832  0.62328483     0.12700
C2072       C  0.75484370  0.71168063  0.59545081    -0.11700
H2073       H  0.71699224  0.70208970  0.61959589     0.13000
C2074       C  0.74936003  0.68798732  0.69147820    -0.22500
H2075       H  0.78651561  0.69537788  0.66661943     0.08600
C2076       C  0.80826722  0.72508919  0.62352791     0.05000
C2077       C  0.82917501  0.72630650  0.61212401    -0.19700
C2078       C  0.83783507  0.70742915  0.60048619    -0.12000
C2079       C  0.82603126  0.68653405  0.60135276     0.13700
C2080       C  0.80518661  0.68540158  0.61268361    -0.22400
C2081       C  0.79891384  0.74581293  0.63515162    -0.05500
H2082       H  0.83819745  0.74231673  0.61125702     0.15200
C2083       C  0.83480239  0.66523415  0.59023623    -0.15700
H2084       H  0.79579379  0.66957123  0.61286866     0.09500
H2085       H  0.75806168  0.70186855  0.70080552     0.07400
H2086       H  0.75831375  0.67179642  0.69495674     0.08600
H2087       H  0.73190854  0.68685482  0.69836714     0.07600
H2088       H  0.76472602  0.69877253  0.58595010     0.02500
H2089       H  0.76333922  0.72841465  0.59379748     0.03000
H2090       H  0.73776946  0.71294568  0.58755225     0.06500
H2091       H  0.81059478  0.76053105  0.63361436     0.05500
H2092       H  0.79635576  0.74221519  0.65347132    -0.00300
H2093       H  0.78240024  0.75054930  0.62742199     0.01200
H2094       H  0.83612520  0.65155235  0.60312141     0.04800
H2095       H  0.85185458  0.66744081  0.58259001     0.06800
H2096       H  0.82284299  0.65976712  0.57673213     0.07700
C2097       C  0.86724657  0.68710471  0.48606965    -0.22000
C2098       C  0.85285542  0.70240854  0.47498655     0.10000
C2099       C  0.84408235  0.72124658  0.48687610     0.10400
C2100       C  0.84994263  0.72432246  0.50973389    -0.16900
C2101       C  0.86424498  0.70892968  0.52087317    -0.27300
C2102       C  0.87294839  0.68999601  0.50895235     0.18700
C2103       C  0.84598824  0.69740725  0.45139425     0.12700
C2104       C  0.82866582  0.73811495  0.47543659    -0.11700
H2105       H  0.84324622  0.73870495  0.51903622     0.13000
C2106       C  0.88750400  0.67203741  0.51993195    -0.22500
H2107       H  0.87356041  0.67243243  0.47694529     0.08600
C2108       C  0.86098555  0.70020275  0.43299329     0.05000
C2109       C  0.85371339  0.69439729  0.41106823    -0.19700
C2110       C  0.83175649  0.68577671  0.40707943    -0.12000
C2111       C  0.81665385  0.68332530  0.42579220     0.13700
C2112       C  0.82411949  0.68904408  0.44763010    -0.22400
C2113       C  0.88455237  0.70951450  0.43647891    -0.05500
H2114       H  0.86540016  0.69643471  0.39701824     0.15200
C2115       C  0.79251577  0.67515392  0.42323862    -0.15700
H2116       H  0.81283563  0.68689812  0.46201574     0.09500
H2117       H  0.90433450  0.67156906  0.51147003     0.07400
H2118       H  0.87922236  0.65522158  0.51796912     0.08600
H2119       H  0.89022159  0.67478976  0.53832014     0.07600
H2120       H  0.81281523  0.72963046  0.46982115     0.02500
H2121       H  0.83738635  0.74554685  0.46047313     0.03000
H2122       H  0.82388885  0.75216505  0.48704988     0.06500
H2123       H  0.89390443  0.71115257  0.42019204     0.05500
H2124       H  0.89440798  0.69805643  0.44769921    -0.00300
H2125       H  0.88353080  0.72657223  0.44440716     0.01200
H2126       H  0.78310576  0.67563539  0.43957089     0.04800
H2127       H  0.79226362  0.65731279  0.41723119     0.06800
H2128       H  0.78335129  0.68625289  0.41113706     0.07700
C2129       C  0.00791339  0.72307886  0.59686368    -0.22000
C2130       C  0.99148023  0.73738038  0.58732656     0.10000
C2131       C  0.99840441  0.75678773  0.57505953     0.10400
C2132       C  0.02159560  0.76085596  0.57183193    -0.16900
C2133       C  0.03804419  0.74582251  0.58016358    -0.27300
C2134       C  0.03113051  0.72671404  0.59301055     0.18700
C2135       C  0.96733632  0.73027256  0.58765564     0.12700
C2136       C  0.98140793  0.77271368  0.56449329    -0.11700
H2137       H  0.02696926  0.77556084  0.56214830     0.13000
C2138       C  0.04743527  0.70903668  0.60167341    -0.22500
H2139       H  0.00251644  0.70820078  0.60625986     0.08600
C2140       C  0.95981158  0.71201216  0.57409561     0.05000
C2141       C  0.93651183  0.70791461  0.57202147    -0.19700
C2142       C  0.92038797  0.72219972  0.58225636    -0.12000
C2143       C  0.92798062  0.74013484  0.59640167     0.13700
C2144       C  0.95140718  0.74345745  0.59942196    -0.22400
C2145       C  0.97620246  0.69757949  0.56074148    -0.05500
H2146       H  0.93075516  0.69405279  0.56136542     0.15200
C2147       C  0.91226573  0.75712505  0.60727002    -0.15700
H2148       H  0.95729932  0.75742397  0.60985800     0.09500
H2149       H  0.04237255  0.69210924  0.59511444     0.07400
H2150       H  0.04692912  0.70867506  0.62050802     0.08600
H2151       H  0.06512914  0.71196296  0.59620080     0.07600
H2152       H  0.97096358  0.78078221  0.57791094     0.02500
H2153       H  0.97020735  0.76323101  0.55266745     0.03000
H2154       H  0.98983700  0.78648353  0.55475482     0.06500
H2155       H  0.96726543  0.68476744  0.55018249     0.05500
H2156       H  0.98767105  0.68833492  0.57244553    -0.00300
H2157       H  0.98642728  0.70845825  0.54923089     0.01200
H2158       H  0.91366340  0.75588165  0.62602323     0.04800
H2159       H  0.89427948  0.75490748  0.60243973     0.06800
H2160       H  0.91724952  0.77450868  0.60196452     0.07700
C2161       C  0.46484776  0.11798062  0.82241029    -0.22000
C2162       C  0.45088320  0.11676399  0.80317894     0.10000
C2163       C  0.45983336  0.10884840  0.78245842     0.10400
C2164       C  0.48264459  0.10216707  0.78147269    -0.16900
C2165       C  0.49667887  0.10339817  0.80069730    -0.27300
C2166       C  0.48766639  0.11130314  0.82148469     0.18700
C2167       C  0.42688011  0.12376765  0.80527365     0.12700
C2168       C  0.44527599  0.10733484  0.76150093    -0.11700
H2169       H  0.48965376  0.09605551  0.76559002     0.13000
C2170       C  0.50137008  0.11239141  0.84306436    -0.22500
H2171       H  0.45780408  0.12399929  0.83831432     0.08600
C2172       C  0.41046724  0.10919724  0.81477008     0.05000
C2173       C  0.38819099  0.11703129  0.81759332    -0.19700
C2174       C  0.38191314  0.13912166  0.81116252    -0.12000
C2175       C  0.39850973  0.15374606  0.80162233     0.13700
C2176       C  0.42070881  0.14568753  0.79853054    -0.22400
C2177       C  0.41646381  0.08536978  0.82180093    -0.05500
H2178       H  0.37554254  0.10579111  0.82484299     0.15200
C2179       C  0.39406262  0.17822508  0.79564526    -0.15700
H2180       H  0.43352983  0.15684582  0.79145625     0.09500
H2181       H  0.49303306  0.10188396  0.85630893     0.07400
H2182       H  0.50222415  0.13021912  0.84908505     0.08600
H2183       H  0.51893948  0.10604633  0.84100557     0.07600
H2184       H  0.43887818  0.12444308  0.75694078     0.02500
H2185       H  0.43064901  0.09589203  0.76471932     0.03000
H2186       H  0.45491046  0.10058462  0.74677134     0.06500
H2187       H  0.40152403  0.07611893  0.82864469     0.05500
H2188       H  0.42970887  0.08578227  0.83519061    -0.00300
H2189       H  0.42297380  0.07582227  0.80691904     0.01200
H2190       H  0.40654690  0.18919358  0.80455469     0.04800
H2191       H  0.37705307  0.18428101  0.80070067     0.06800
H2192       H  0.39609166  0.18063419  0.77706368     0.07700
C2193       C  0.63690085  0.19016652  0.79764781    -0.22000
C2194       C  0.61358243  0.18608123  0.79537336     0.10000
C2195       C  0.59820095  0.20433695  0.79637593     0.10400
C2196       C  0.60645202  0.22626910  0.80002674    -0.16900
C2197       C  0.62970309  0.23052126  0.80329057    -0.27300
C2198       C  0.64524810  0.21214696  0.80191157     0.18700
C2199       C  0.60496563  0.16253515  0.79452938     0.12700
C2200       C  0.57293708  0.20057837  0.79442020    -0.11700
H2201       H  0.59449180  0.24020981  0.80098116     0.13000
C2202       C  0.67037034  0.21444850  0.80624321    -0.22500
H2203       H  0.64855954  0.17594460  0.79717164     0.08600
C2204       C  0.59865726  0.15219995  0.77387799     0.05000
C2205       C  0.58554975  0.13229402  0.77438021    -0.19700
C2206       C  0.57864816  0.12274505  0.79508370    -0.12000
C2207       C  0.58648960  0.13215205  0.81569829     0.13700
C2208       C  0.59964228  0.15193974  0.81514602    -0.22400
C2209       C  0.60502484  0.16267705  0.75145212    -0.05500
H2210       H  0.57954982  0.12490955  0.75862620     0.15200
C2211       C  0.58060610  0.12219915  0.83851967    -0.15700
H2212       H  0.60464291  0.15991608  0.83096965     0.09500
H2213       H  0.67986639  0.20984814  0.79062922     0.07400
H2214       H  0.67541532  0.20267958  0.82006956     0.08600
H2215       H  0.67566827  0.23160194  0.81158123     0.07600
H2216       H  0.56705895  0.18915733  0.80820763     0.02500
H2217       H  0.56884511  0.19278302  0.77777581     0.03000
H2218       H  0.56332599  0.21671953  0.79578819     0.06500
H2219       H  0.59873018  0.15242157  0.73693668     0.05500
H2220       H  0.62378649  0.16386169  0.75015493    -0.00300
H2221       H  0.59768234  0.17994424  0.75003493     0.01200
H2222       H  0.59647032  0.11811221  0.84783131     0.04800
H2223       H  0.57049613  0.10637979  0.83723094     0.06800
H2224       H  0.57072474  0.13473230  0.84852096     0.07700
C2225       C  0.58691409  0.80572876  0.74973828    -0.22000
C2226       C  0.60445395  0.80888340  0.73401447     0.10000
C2227       C  0.60906535  0.83078592  0.72554477     0.10400
C2228       C  0.59472058  0.84878242  0.73158182    -0.16900
C2229       C  0.57592289  0.84517022  0.74577626    -0.27300
C2230       C  0.57274461  0.82368055  0.75598793     0.18700
C2231       C  0.61519487  0.78847499  0.72426390     0.12700
C2232       C  0.62864349  0.83494580  0.70964858    -0.11700
H2233       H  0.59726040  0.86534428  0.72397240     0.13000
C2234       C  0.55428216  0.81901387  0.77308795    -0.22500
H2235       H  0.58359779  0.78888974  0.75639355     0.08600
C2236       C  0.63035946  0.77489868  0.73678664     0.05000
C2237       C  0.63734403  0.75399929  0.72776330    -0.19700
C2238       C  0.62943817  0.74648743  0.70655193    -0.12000
C2239       C  0.61435328  0.76028678  0.69394952     0.13700
C2240       C  0.60768277  0.78122904  0.70290301    -0.22400
C2241       C  0.63910403  0.78248512  0.75957616    -0.05500
H2242       H  0.64886342  0.74336421  0.73737225     0.15200
C2243       C  0.60372983  0.75306646  0.67177996    -0.15700
H2244       H  0.59561451  0.79155138  0.69361322     0.09500
H2245       H  0.56194588  0.81202696  0.78882051     0.07400
H2246       H  0.54217291  0.80639075  0.76606105     0.08600
H2247       H  0.54475509  0.83447747  0.77794188     0.07600
H2248       H  0.62637936  0.82499127  0.69382562     0.02500
H2249       H  0.64472740  0.82978090  0.71799099     0.03000
H2250       H  0.63005633  0.85313879  0.70493803     0.06500
H2251       H  0.65122596  0.77005140  0.76687895     0.05500
H2252       H  0.62479862  0.78444596  0.77166436    -0.00300
H2253       H  0.64799887  0.79900041  0.75775032     0.01200
H2254       H  0.58495280  0.75357091  0.67338890     0.04800
H2255       H  0.60828139  0.73564369  0.66652518     0.06800
H2256       H  0.60896116  0.76496484  0.65813748     0.07700
C2257       C  0.46794076  0.86119199  0.70092321    -0.22000
C2258       C  0.45262136  0.85333856  0.71731691     0.10000
C2259       C  0.45918491  0.85211990  0.74028674     0.10400
C2260       C  0.48105038  0.85910249  0.74645488    -0.16900
C2261       C  0.49636950  0.86706505  0.73009464    -0.27300
C2262       C  0.48987263  0.86803205  0.70702910     0.18700
C2263       C  0.42972892  0.84642373  0.71006826     0.12700
C2264       C  0.44311187  0.84345444  0.75819235    -0.11700
H2265       H  0.48631155  0.85822659  0.76406495     0.13000
C2266       C  0.50562099  0.87602459  0.68851628    -0.22500
H2267       H  0.46274584  0.86193864  0.68328004     0.08600
C2268       C  0.41207244  0.86234535  0.70804434     0.05000
C2269       C  0.39048306  0.85492683  0.70144957    -0.19700
C2270       C  0.38618858  0.83192213  0.69675324    -0.12000
C2271       C  0.40406365  0.81592523  0.69901921     0.13700
C2272       C  0.42563948  0.82349553  0.70559648    -0.22400
C2273       C  0.41603104  0.88711314  0.71298640    -0.05500
H2274       H  0.37693766  0.86722852  0.69980756     0.15200
C2275       C  0.40059622  0.79082827  0.69532291    -0.15700
H2276       H  0.43943287  0.81146693  0.70745317     0.09500
H2277       H  0.49802825  0.89088714  0.67979238     0.07400
H2278       H  0.50806069  0.86219498  0.67595367     0.08600
H2279       H  0.52256223  0.88110208  0.69493770     0.07600
H2280       H  0.43818612  0.82569568  0.75428320     0.02500
H2281       H  0.42764936  0.85419046  0.75863086     0.03000
H2282       H  0.45095228  0.84372993  0.77533386     0.06500
H2283       H  0.40032890  0.89727491  0.71073944     0.05500
H2284       H  0.42915734  0.89392605  0.70130558    -0.00300
H2285       H  0.42188533  0.88921952  0.73077582     0.01200
H2286       H  0.39637344  0.78744282  0.67728353     0.04800
H2287       H  0.38675966  0.78453808  0.70647764     0.06800
H2288       H  0.41612752  0.78095059  0.69935747     0.07700
C2289       C  0.56941442  0.96169112  0.75483723    -0.22000
C2290       C  0.55509226  0.97116548  0.77124517     0.10000
C2291       C  0.53848831  0.95761188  0.78187784     0.10400
C2292       C  0.53653072  0.93474477  0.77576060    -0.16900
C2293       C  0.55032618  0.92531931  0.75876772    -0.27300
C2294       C  0.56699268  0.93900516  0.74809208     0.18700
C2295       C  0.55555199  0.99593210  0.77472890     0.12700
C2296       C  0.52231987  0.96748746  0.79906181    -0.11700
H2297       H  0.52371478  0.92427790  0.78381582     0.13000
C2298       C  0.58151189  0.93090384  0.72862891    -0.22500
H2299       H  0.58175812  0.97241735  0.74638111     0.08600
C2300       C  0.56829054  0.00616985  0.79220363     0.05000
C2301       C  0.56635416  0.02966193  0.79573119    -0.19700
C2302       C  0.55207853  0.04293438  0.78200784    -0.12000
C2303       C  0.54048819  0.03271497  0.76358922     0.13700
C2304       C  0.54215816  0.00928864  0.76041615    -0.22400
C2305       C  0.58357630  0.99225329  0.80720380    -0.05500
H2306       H  0.57534454  0.03756199  0.80971196     0.15200
C2307       C  0.52636265  0.04594031  0.74683184    -0.15700
H2308       H  0.53275969  0.00129637  0.74674566     0.09500
H2309       H  0.59964611  0.93130004  0.73373258     0.07400
H2310       H  0.57912788  0.94234322  0.71384381     0.08600
H2311       H  0.57729037  0.91356504  0.72281899     0.07600
H2312       H  0.51227548  0.98131209  0.79114820     0.02500
H2313       H  0.53194243  0.97443356  0.81368338     0.03000
H2314       H  0.51027216  0.95453775  0.80559459     0.06500
H2315       H  0.59237159  0.00292644  0.82001826     0.05500
H2316       H  0.59665586  0.98370858  0.79667886    -0.00300
H2317       H  0.57351775  0.97920256  0.81632661     0.01200
H2318       H  0.53244142  0.04240950  0.72934543     0.04800
H2319       H  0.52740832  0.06453565  0.74932198     0.06800
H2320       H  0.50832813  0.04062424  0.74819651     0.07700
loop_ 
_geom_bond_atom_site_label_1 
_geom_bond_atom_site_label_2 
_geom_bond_distance 
_geom_bond_site_symmetry_2 
_ccdc_geom_bond_type 
C1            C2   1.404       .  A
C1            C6   1.405       .  A
C1         C2293   1.478       .  S
C2            C3   1.397       .  A
C2            H7   1.085       .  S
C3            C4   1.394       .  A
C3         C2261   1.468       .  S
C4            C5   1.402       .  A
C4            H8   1.085       .  S
C5            C6   1.403       .  A
C5         C2229   1.476       .  S
C6            H9   1.084       .  S
C10          C11   1.404       .  A
C10          C15   1.403       .  A
C10        C2302   1.477       .  S
C11          C12   1.403       .  A
C11          H16   1.084       .  S
C12          C13   1.403       .  A
C12        C2206   1.474       .  S
C13          C14   1.400       .  A
C13          H17   1.084       .  S
C14          C15   1.397       .  A
C14        C2165   1.476       .  S
C15          H18   1.084       .  S
C19          C20   1.409       .  A
C19          C24   1.406       .  A
C19        C2142   1.485       .  S
C20          C21   1.406       .  A
C20          H25   1.083       .  S
C21          C22   1.400       .  A
C21        C2078   1.475       .  S
C22          C23   1.394       .  A
C22          H26   1.084       .  S
C23          C24   1.396       .  A
C23        C2101   1.473       .  S
C24          H27   1.084       .  S
C28          C29   1.403       .  A
C28          C33   1.404       .  A
C28        C2133   1.479       .  S
C29          C30   1.401       .  A
C29          H34   1.084       .  S
C30          C31   1.402       .  A
C30        C2037   1.474       .  S
C31          C32   1.401       .  A
C31          H35   1.084       .  S
C32          C33   1.401       .  A
C32        C2005   1.482       .  S
C33          H36   1.084       .  S
C37          C38   1.406       .  A
C37          C42   1.407       .  A
C37        C1973   1.483       .  S
C38          C39   1.403       .  A
C38          H43   1.084       .  S
C39          C40   1.401       .  A
C39        C1941   1.475       .  S
C40          C41   1.399       .  A
C40          H44   1.084       .  S
C41          C42   1.399       .  A
C41        C1918   1.477       .  S
C42          H45   1.084       .  S
C46          C47   1.406       .  A
C46          C51   1.407       .  A
C46        C1982   1.483       .  S
C47          C48   1.396       .  A
C47          H52   1.084       .  S
C48          C49   1.397       .  A
C48        C1877   1.472       .  S
C49          C50   1.403       .  A
C49          H53   1.084       .  S
C50          C51   1.404       .  A
C50        C1845   1.478       .  S
C51          H54   1.084       .  S
C55          C56   1.406       .  A
C55          C60   1.405       .  A
C55        C1813   1.483       .  S
C56          C57   1.399       .  A
C56          H61   1.084       .  S
C57          C58   1.397       .  A
C57        C1790   1.474       .  S
C58          C59   1.403       .  A
C58          H62   1.085       .  S
C59          C60   1.403       .  A
C59        C1749   1.478       .  S
C60          H63   1.083       .  S
C64          C65   1.407       .  A
C64          C69   1.405       .  A
C64        C1822   1.480       .  S
C65          C66   1.399       .  A
C65          H70   1.084       .  S
C66          C67   1.397       .  A
C66        C1685   1.475       .  S
C67          C68   1.400       .  A
C67          H71   1.084       .  S
C68          C69   1.401       .  A
C68        C1717   1.470       .  S
C69          H72   1.084       .  S
Zn73         O77   1.952       .  S
Zn73         O78   2.017       .  S
Zn73         O82   2.013       .  S
Zn73         O89   1.992       .  S
Zn74         O77   1.946       .  S
Zn74         O79   2.011       .  S
Zn74         O81   2.020       .  S
Zn74         O85   1.997       .  S
Zn75         O77   1.951       .  S
Zn75         O80   2.004       .  S
Zn75         O83   2.010       .  S
Zn75         O86   1.996       .  S
Zn76         O77   1.981       .  S
Zn76         O84   2.047       .  S
Zn76         O87   2.046       .  S
Zn76         O88   2.043       .  S
O78          C90   1.272       .  A
O79          C91   1.273       .  A
O80          C92   1.272       .  A
O81          C90   1.273       .  A
O82          C92   1.272       .  A
O83          C91   1.272       .  A
O84          C93   1.276       .  A
O85          C94   1.271       .  A
O86          C93   1.272       .  A
O87          C94   1.278       .  A
O88          C95   1.276       .  A
O89          C95   1.273       .  A
C90        C1598   1.485       .  S
C91        C1781   1.477       .  S
C92        C1557   1.478       .  S
C93        C1653   1.484       .  S
C94        C1621   1.497       .  S
C95        C2197   1.483       .  S
Zn96        O100   1.941       .  S
Zn96        O101   2.003       .  S
Zn96        O105   1.990       .  S
Zn96        O112   1.999       .  S
Zn97        O100   1.941       .  S
Zn97        O102   1.973       .  S
Zn97        O104   1.992       .  S
Zn97        O108   2.004       .  S
Zn98        O100   1.979       .  S
Zn98        O103   2.039       .  S
Zn98        O106   2.039       .  S
Zn98        O109   2.024       .  S
Zn99        O100   1.950       .  S
Zn99        O107   1.994       .  S
Zn99        O110   2.018       .  S
Zn99        O111   2.025       .  S
O101        C113   1.272       .  A
O102        C114   1.268       .  A
O103        C115   1.275       .  A
O104        C113   1.269       .  A
O105        C115   1.272       .  A
O106        C114   1.276       .  A
O107        C116   1.273       .  A
O108        C117   1.271       .  A
O109        C116   1.274       .  A
O110        C117   1.272       .  A
O111        C118   1.274       .  A
O112        C118   1.270       .  A
C113       C2270   1.481       .  S
C114       C1493   1.483       .  S
C115       C1525   1.481       .  S
C116       C2046   1.471       .  S
C117       C1886   1.486       .  S
C118       C1461   1.485       .  S
C119        C120   1.406       .  A
C119        C124   1.401       .  A
C119       C1429   1.477       .  S
C120        C121   1.401       .  A
C120        H125   1.084       .  S
C121        C122   1.401       .  A
C121       C1406   1.482       .  S
C122        C123   1.403       .  A
C122        H126   1.084       .  S
C123        C124   1.400       .  A
C123       C1365   1.475       .  S
C124        H127   1.083       .  S
C128        C129   1.407       .  A
C128        C133   1.404       .  A
C128       C1438   1.480       .  S
C129        C130   1.405       .  A
C129        H134   1.084       .  S
C130        C131   1.402       .  A
C130       C1310   1.477       .  S
C131        C132   1.396       .  A
C131        H135   1.085       .  S
C132        C133   1.395       .  A
C132       C1333   1.474   1_455  S
C133        H136   1.085       .  S
Zn137       O141   1.941       .  S
Zn137       O142   1.996       .  S
Zn137       O146   1.992       .  S
Zn137       O153   2.006       .  S
Zn138       O141   1.977       .  S
Zn138       O143   2.028       .  S
Zn138       O145   2.042       .  S
Zn138       O149   2.025       .  S
Zn139       O141   1.958       .  S
Zn139       O144   2.022       .  S
Zn139       O147   2.001       .  S
Zn139       O150   2.026       .  S
Zn140       O141   1.948       .  S
Zn140       O148   2.009       .  S
Zn140       O151   1.994       .  S
Zn140       O152   2.012       .  S
O142        C154   1.272       .  A
O143        C155   1.274       .  A
O144        C156   1.274       .  A
O145        C154   1.275       .  A
O146        C156   1.269       .  A
O147        C155   1.274       .  A
O148        C157   1.272       .  A
O149        C158   1.274       .  A
O150        C157   1.274       .  A
O151        C158   1.273       .  A
O152        C159   1.273       .  A
O153        C159   1.270       .  A
C154       C1950   1.479       .  S
C155       C1269   1.479       .  S
C156       C2110   1.490       .  S
C157       C1397   1.477       .  S
C158       C1726   1.481       .  S
C159       C1246   1.493       .  S
C160        C161   1.407       .  A
C160        C165   1.404       .  A
C160       C1205   1.482       .  S
C161        C162   1.405       .  A
C161        H166   1.084       .  S
C162        C163   1.404       .  A
C162       C1662   1.479       .  S
C163        C164   1.399       .  A
C163        H167   1.084       .  S
C164        C165   1.398       .  A
C164       C1173   1.476       .  S
C165        H168   1.084       .  S
C169        C170   1.407       .  A
C169        C174   1.406       .  A
C169       C1214   1.483       .  S
C170        C171   1.404       .  A
C170        H175   1.083       .  S
C171        C172   1.400       .  A
C171       C1141   1.478       .  S
C172        C173   1.397       .  A
C172        H176   1.085       .  S
C173        C174   1.400       .  A
C173       C1109   1.474       .  S
C174        H177   1.084       .  S
Zn178       O182   1.950       .  S
Zn178       O183   2.015       .  S
Zn178       O187   1.992       .  S
Zn178       O194   2.007       .  S
Zn179       O182   1.941       .  S
Zn179       O184   1.981       .  S
Zn179       O186   2.001       .  S
Zn179       O190   2.011       .  S
Zn180       O182   1.984       .  S
Zn180       O185   2.044       .  S
Zn180       O188   2.048       .  S
Zn180       O191   2.052       .  S
Zn181       O182   1.942       .  S
Zn181       O189   1.981       .  S
Zn181       O192   2.013       .  S
Zn181       O193   2.007       .  S
O183        C195   1.271       .  A
O184        C196   1.269       .  A
O185        C197   1.277       .  A
O186        C195   1.272       .  A
O187        C197   1.271       .  A
O188        C196   1.278       .  A
O189        C198   1.269       .  A
O190        C199   1.271       .  A
O191        C198   1.278       .  A
O192        C199   1.272       .  A
O193        C200   1.270       .  A
O194        C200   1.273       .  A
C195       C1182   1.492       .  S
C196       C1013   1.489       .  S
C197       C1054   1.484       .  S
C198       C1077   1.495       .  S
C199       C1694   1.485       .  S
C200       C1342   1.490       .  S
C201        C202   1.407       .  A
C201        C206   1.406       .  A
C201        C981   1.483       .  S
C202        C203   1.399       .  A
C202        H207   1.084       .  S
C203        C204   1.398       .  A
C203        C949   1.477       .  S
C204        C205   1.400       .  A
C204        H208   1.084       .  S
C205        C206   1.402       .  A
C205        C917   1.473       .  S
C206        H209   1.083       .  S
C210        C211   1.406       .  A
C210        C215   1.405       .  A
C210        C990   1.482       .  S
C211        C212   1.404       .  A
C211        H216   1.083       .  S
C212        C213   1.403       .  A
C212       C1022   1.478       .  S
C213        C214   1.397       .  A
C213        H217   1.084       .  S
C214        C215   1.398       .  A
C214       C1566   1.472       .  S
C215        H218   1.084       .  S
C219        C220   1.406       .  A
C219        C224   1.405       .  A
C219        C885   1.482       .  S
C220        C221   1.404       .  A
C220        H225   1.083       .  S
C221        C222   1.402       .  A
C221       C1534   1.475       .  S
C222        C223   1.399       .  A
C222        H226   1.084       .  S
C223        C224   1.396       .  A
C223        C853   1.474       .  S
C224        H227   1.084       .  S
C228        C229   1.406       .  A
C228        C233   1.407       .  A
C228        C894   1.484       .  S
C229        C230   1.403       .  A
C229        H234   1.084       .  S
C230        C231   1.403       .  A
C230        C798   1.480       .  S
C231        C232   1.399       .  A
C231        H235   1.084       .  S
C232        C233   1.402       .  A
C232        C830   1.483       .  S
C233        H236   1.084       .  S
Zn237       O241   1.952       .  S
Zn237       O242   2.006       .  S
Zn237       O246   2.014       .  S
Zn237       O253   2.006       .  S
Zn238       O241   1.963       .  S
Zn238       O243   2.027       .  S
Zn238       O245   2.027       .  S
Zn238       O249   2.019       .  S
Zn239       O241   1.948       .  S
Zn239       O244   2.002       .  S
Zn239       O247   1.993       .  S
Zn239       O250   2.002       .  S
Zn240       O241   1.957       .  S
Zn240       O248   2.024       .  S
Zn240       O251   1.996       .  S
Zn240       O252   2.001       .  S
O242        C254   1.271       .  A
O243        C255   1.274       .  A
O244        C256   1.271       .  A
O245        C254   1.275       .  A
O246        C256   1.272       .  A
O247        C255   1.271       .  A
O248        C257   1.273       .  A
O249        C258   1.274       .  A
O250        C257   1.271       .  A
O251        C258   1.271       .  A
O252        C259   1.272       .  A
O253        C259   1.272       .  A
C254       C1150   1.484       .  S
C255        C958   1.476       .  S
C256        C862   1.479       .  S
C257       C2174   1.479       .  S
C258        C725   1.465       .  S
C259        C757   1.475       .  S
C260        C261   1.405       .  A
C260        C265   1.405       .  A
C260        C702   1.480       .  S
C261        C262   1.398       .  A
C261        H266   1.084       .  S
C262        C263   1.398       .  A
C262        C638   1.473       .  S
C263        C264   1.402       .  A
C263        H267   1.084       .  S
C264        C265   1.401       .  A
C264        C661   1.473       .  S
C265        H268   1.084       .  S
C269        C270   1.403       .  A
C269        C274   1.405       .  A
C269        C693   1.480       .  S
C270        C271   1.400       .  A
C270        H275   1.085       .  S
C271        C272   1.402       .  A
C271        C766   1.471       .  S
C272        C273   1.397       .  A
C272        H276   1.085       .  S
C273        C274   1.397       .  A
C273       C1470   1.472       .  S
C274        H277   1.084       .  S
Zn278       O282   1.955       .  S
Zn278       O283   2.010       .  S
Zn278       O287   2.009       .  S
Zn278       O294   2.015       .  S
Zn279       O282   1.953       .  S
Zn279       O284   2.001       .  S
Zn279       O286   2.014       .  S
Zn279       O290   2.010       .  S
Zn280       O282   1.962       .  S
Zn280       O285   2.012       .  S
Zn280       O288   2.014       .  S
Zn280       O291   2.026       .  S
Zn281       O282   1.949       .  S
Zn281       O289   2.004       .  S
Zn281       O292   2.005       .  S
Zn281       O293   1.995       .  S
O283        C295   1.272       .  A
O284        C296   1.272       .  A
O285        C297   1.273       .  A
O286        C295   1.273       .  A
O287        C297   1.273       .  A
O288        C296   1.273       .  A
O289        C298   1.271       .  A
O290        C299   1.273       .  A
O291        C298   1.274       .  A
O292        C299   1.273       .  A
O293        C300   1.271       .  A
O294        C300   1.274       .  A
C295       C1301   1.478       .  S
C296        C597   1.475       .  S
C297       C1118   1.477       .  S
C298        C821   1.471       .  S
C299        C670   1.477       .  S
C300        C926   1.476       .  S
C301        C302   1.406       .  A
C301        C306   1.403       .  A
C301        C565   1.477       .  S
C302        C303   1.402       .  A
C302        H307   1.084       .  S
C303        C304   1.401       .  A
C303       C1278   1.473       .  S
C304        C305   1.396       .  A
C304        H308   1.085       .  S
C305        C306   1.396       .  A
C305        C542   1.469       .  S
C306        H309   1.085       .  S
C310        C311   1.402       .  A
C310        C315   1.406       .  A
C310        C574   1.477       .  S
C311        C312   1.395       .  A
C311        H316   1.084       .  S
C312        C313   1.395       .  A
C312        C606   1.470       .  S
C313        C314   1.404       .  A
C313        H317   1.084       .  S
C314        C315   1.407       .  A
C314       C1045   1.482       .  S
C315        H318   1.083       .  S
Zn319       O323   1.948       .  S
Zn319       O324   2.015       .  S
Zn319       O328   2.014       .  S
Zn319       O335   1.986       .  S
Zn320       O323   1.943       .  S
Zn320       O325   1.998       .  S
Zn320       O327   2.006       .  S
Zn320       O331   1.987       .  S
Zn321       O323   1.952       .  S
Zn321       O326   2.014       .  S
Zn321       O329   2.021       .  S
Zn321       O332   2.003       .  S
Zn322       O323   1.976       .  S
Zn322       O330   2.026       .  S
Zn322       O333   2.033       .  S
Zn322       O334   2.032       .  S
O324        C336   1.272       .  A
O325        C337   1.271       .  A
O326        C338   1.274       .  A
O327        C336   1.271       .  A
O328        C338   1.271       .  A
O329        C337   1.274       .  A
O330        C339   1.274       .  A
O331        C340   1.269       .  A
O332        C339   1.273       .  A
O333        C340   1.275       .  A
O334        C341   1.275       .  A
O335        C341   1.270       .  A
C336        C533   1.480       .  S
C337        C629   1.483       .  S
C338       C2014   1.493       .  S
C339       C1854   1.473       .  S
C340        C789   1.486       .  S
C341       C1374   1.478       .  S
C342        C343   1.402       .  A
C342        C347   1.406       .  A
C342        C501   1.476       .  S
C343        C344   1.402       .  A
C343        H348   1.084       .  S
C344        C345   1.403       .  A
C344        C734   1.477       .  S
C345        C346   1.397       .  A
C345        H349   1.084       .  S
C346        C347   1.401       .  A
C346       C1589   1.478       .  S
C347        H350   1.084       .  S
C351        C352   1.404       .  A
C351        C356   1.405       .  A
C351        C510   1.477       .  S
C352        C353   1.397       .  A
C352        H357   1.084       .  S
C353        C354   1.396       .  A
C353        C478   1.471       .  S
C354        C355   1.400       .  A
C354        H358   1.084       .  S
C355        C356   1.404       .  A
C355       C1502   1.477       .  S
C356        H359   1.084       .  S
C360        C361   1.406       .  A
C360        C365   1.408       .  A
C360        C446   1.487       .  S
C361        C362   1.400       .  A
C361        H366   1.084       .  S
C362        C363   1.400       .  A
C362       C1237   1.479       .  S
C363        C364   1.403       .  A
C363        H367   1.084       .  S
C364        C365   1.402       .  A
C364       C1086   1.478       .  S
C365        H368   1.084       .  S
C369        C370   1.407       .  A
C369        C374   1.411       .  A
C369        C437   1.490       .  S
C370        C371   1.398       .  A
C370        H375   1.084       .  S
C371        C372   1.398       .  A
C371        C405   1.478       .  S
C372        C373   1.403       .  A
C372        H376   1.085       .  S
C373        C374   1.407       .  A
C373       C1630   1.482       .  S
C374        H377   1.084       .  S
Zn378       O382   1.954       .  S
Zn378       O383   2.015       .  S
Zn378       O387   2.010       .  S
Zn378       O394   2.010       .  S
Zn379       O382   1.955       .  S
Zn379       O384   2.003       .  S
Zn379       O386   2.008       .  S
Zn379       O390   2.004       .  S
Zn380       O382   1.959       .  S
Zn380       O385   2.022       .  S
Zn380       O388   2.008       .  S
Zn380       O391   2.016       .  S
Zn381       O382   1.957       .  S
Zn381       O389   2.015       .  S
Zn381       O392   2.015       .  S
Zn381       O393   2.009       .  S
O383        C395   1.273       .  A
O384        C396   1.270       .  A
O385        C397   1.273       .  A
O386        C395   1.272       .  A
O387        C397   1.272       .  A
O388        C396   1.274       .  A
O389        C398   1.273       .  A
O390        C399   1.271       .  A
O391        C398   1.273       .  A
O392        C399   1.272       .  A
O393        C400   1.273       .  A
O394        C400   1.273       .  A
C395       C2238   1.472       .  S
C396        C469   1.479       .  S
C397       C1909   1.477       .  S
C398        C414   1.475       .  S
C399       C1758   1.467       .  S
C400       C2069   1.474       .  S
C401        C402   1.401       .  A
C401        C406   1.402       .  A
C401        H411   1.084       .  S
C402        C403   1.410       .  A
C402        C407   1.480       .  S
C403        C404   1.404       .  A
C403        C408   1.506       .  S
C404        C405   1.403       .  A
C404        H409   1.084       .  S
C405        C406   1.416       .  A
C406        C410   1.508       .  S
C407        C412   1.410       .  A
C407        C416   1.400       .  A
C408        H424   1.110       .  S
C408        H425   1.110       .  S
C408        H426   1.111       .  S
C410        H421   1.110       .  S
C410        H422   1.110       .  S
C410        H423   1.108       .  S
C412        C413   1.404       .  A
C412        C417   1.506       .  S
C413        C414   1.404       .  A
C413        H418   1.084       .  S
C414        C415   1.417       .  A
C415        C416   1.403       .  A
C415        C419   1.509       .  S
C416        H420   1.085       .  S
C417        H427   1.111       .  S
C417        H428   1.110       .  S
C417        H429   1.110       .  S
C419        H430   1.111       .  S
C419        H431   1.107       .  S
C419        H432   1.110       .  S
C433        C434   1.401       .  A
C433        C438   1.401       .  A
C433        H443   1.084       .  S
C434        C435   1.413       .  A
C434        C439   1.486       .  S
C435        C436   1.406       .  A
C435        C440   1.507       .  S
C436        C437   1.406       .  A
C436        H441   1.083       .  S
C437        C438   1.419       .  A
C438        C442   1.508       .  S
C439        C444   1.413       .  A
C439        C448   1.402       .  A
C440        H456   1.109       .  S
C440        H457   1.110       .  S
C440        H458   1.111       .  S
C442        H453   1.111       .  S
C442        H454   1.110       .  S
C442        H455   1.108       .  S
C444        C445   1.404       .  A
C444        C449   1.507       .  S
C445        C446   1.405       .  A
C445        H450   1.084       .  S
C446        C447   1.418       .  A
C447        C448   1.402       .  A
C447        C451   1.508       .  S
C448        H452   1.084       .  S
C449        H459   1.111       .  S
C449        H460   1.108       .  S
C449        H461   1.110       .  S
C451        H462   1.110       .  S
C451        H463   1.108       .  S
C451        H464   1.111       .  S
C465        C466   1.400       .  A
C465        C470   1.404       .  A
C465        H475   1.084       .  S
C466        C467   1.408       .  A
C466        C471   1.474       .  S
C467        C468   1.398       .  A
C467        C472   1.507       .  S
C468        C469   1.405       .  A
C468        H473   1.084       .  S
C469        C470   1.419       .  A
C470        C474   1.508       .  S
C471        C476   1.410       .  A
C471        C480   1.400       .  A
C472        H488   1.109       .  S
C472        H489   1.110       .  S
C472        H490   1.111       .  S
C474        H485   1.110       .  S
C474        H486   1.111       .  S
C474        H487   1.110       .  S
C476        C477   1.402       .  A
C476        C481   1.506       .  S
C477        C478   1.403       .  A
C477        H482   1.084       .  S
C478        C479   1.414       .  A
C479        C480   1.398       .  A
C479        C483   1.508       .  S
C480        H484   1.085       .  S
C481        H491   1.111       .  S
C481        H492   1.110       .  S
C481        H493   1.110       .  S
C483        H494   1.110       .  S
C483        H495   1.108       .  S
C483        H496   1.111       .  S
C497        C498   1.400       .  A
C497        C502   1.399       .  A
C497        H507   1.085       .  S
C498        C499   1.410       .  A
C498        C503   1.476       .  S
C499        C500   1.404       .  A
C499        C504   1.507       .  S
C500        C501   1.405       .  A
C500        H505   1.084       .  S
C501        C502   1.413       .  A
C502        C506   1.507       .  S
C503        C508   1.412       .  A
C503        C512   1.401       .  A
C504        H520   1.110       .  S
C504        H521   1.108       .  S
C504        H522   1.111       .  S
C506        H517   1.110       .  S
C506        H518   1.111       .  S
C506        H519   1.108       .  S
C508        C509   1.400       .  A
C508        C513   1.509       .  S
C509        C510   1.403       .  A
C509        H514   1.084       .  S
C510        C511   1.417       .  A
C511        C512   1.403       .  A
C511        C515   1.508       .  S
C512        H516   1.084       .  S
C513        H523   1.111       .  S
C513        H524   1.110       .  S
C513        H525   1.108       .  S
C515        H526   1.111       .  S
C515        H527   1.106       .  S
C515        H528   1.110       .  S
C529        C530   1.399       .  A
C529        C534   1.402       .  A
C529        H539   1.084       .  S
C530        C531   1.408       .  A
C530        C535   1.475       .  S
C531        C532   1.401       .  A
C531        C536   1.507       .  S
C532        C533   1.406       .  A
C532        H537   1.084       .  S
C533        C534   1.420       .  A
C534        C538   1.508       .  S
C535        C540   1.410   1_455  A
C535        C544   1.401   1_455  A
C536        H552   1.110       .  S
C536        H553   1.110       .  S
C536        H554   1.111       .  S
C538        H549   1.111       .  S
C538        H550   1.110       .  S
C538        H551   1.104       .  S
C540        C541   1.402       .  A
C540        C545   1.506   1_655  S
C541        C542   1.401       .  A
C541        H546   1.084       .  S
C542        C543   1.413       .  A
C543        C544   1.400       .  A
C543        C547   1.508       .  S
C544        H548   1.085       .  S
C545        H555   1.111       .  S
C545        H556   1.110       .  S
C545        H557   1.110       .  S
C547        H558   1.110       .  S
C547        H559   1.108       .  S
C547        H560   1.111       .  S
C561        C562   1.400       .  A
C561        C566   1.401       .  A
C561        H571   1.085       .  S
C562        C563   1.412       .  A
C562        C567   1.476   1_565  S
C563        C564   1.401       .  A
C563        C568   1.509       .  S
C564        C565   1.404       .  A
C564        H569   1.084       .  S
C565        C566   1.417       .  A
C566        C570   1.509       .  S
C567        C572   1.410       .  A
C567        C576   1.400       .  A
C568        H584   1.110       .  S
C568        H585   1.107       .  S
C568        H586   1.111       .  S
C570        H581   1.110       .  S
C570        H582   1.111       .  S
C570        H583   1.106       .  S
C572        C573   1.404       .  A
C572        C577   1.507       .  S
C573        C574   1.404       .  A
C573        H578   1.084       .  S
C574        C575   1.415       .  A
C575        C576   1.398       .  A
C575        C579   1.508       .  S
C576        H580   1.085       .  S
C577        H587   1.111       .  S
C577        H588   1.110   1_545  S
C577        H589   1.108   1_545  S
C579        H590   1.111       .  S
C579        H591   1.108       .  S
C579        H592   1.110       .  S
C593        C594   1.400       .  A
C593        C598   1.402       .  A
C593        H603   1.085       .  S
C594        C595   1.407       .  A
C594        C599   1.473       .  S
C595        C596   1.399       .  A
C595        C600   1.507       .  S
C596        C597   1.405       .  A
C596        H601   1.084       .  S
C597        C598   1.418       .  A
C598        C602   1.508       .  S
C599        C604   1.409   1_455  A
C599        C608   1.400   1_455  A
C600        H616   1.110       .  S
C600        H617   1.110       .  S
C600        H618   1.111       .  S
C602        H613   1.110       .  S
C602        H614   1.111       .  S
C602        H615   1.106       .  S
C604        C605   1.401       .  A
C604        C609   1.506       .  S
C605        C606   1.402       .  A
C605        H610   1.084       .  S
C606        C607   1.414       .  A
C607        C608   1.400       .  A
C607        C611   1.508       .  S
C608        H612   1.084   1_655  S
C609        H619   1.111       .  S
C609        H620   1.110   1_655  S
C609        H621   1.110       .  S
C611        H622   1.110       .  S
C611        H623   1.108       .  S
C611        H624   1.111       .  S
C625        C626   1.398       .  A
C625        C630   1.402       .  A
C625        H635   1.085       .  S
C626        C627   1.409       .  A
C626        C631   1.476       .  S
C627        C628   1.403       .  A
C627        C632   1.506       .  S
C628        C629   1.407       .  A
C628        H633   1.082       .  S
C629        C630   1.420       .  A
C630        C634   1.509       .  S
C631        C636   1.409       .  A
C631        C640   1.400       .  A
C632        H648   1.110       .  S
C632        H649   1.110       .  S
C632        H650   1.110       .  S
C634        H645   1.111       .  S
C634        H646   1.109       .  S
C634        H647   1.111       .  S
C636        C637   1.403       .  A
C636        C641   1.506       .  S
C637        C638   1.404   1_565  A
C637        H642   1.083       .  S
C638        C639   1.414   1_545  A
C639        C640   1.400       .  A
C639        C643   1.508   1_565  S
C640        H644   1.084       .  S
C641        H651   1.111       .  S
C641        H652   1.110       .  S
C641        H653   1.110       .  S
C643        H654   1.110       .  S
C643        H655   1.108       .  S
C643        H656   1.110   1_545  S
C657        C658   1.401       .  A
C657        C662   1.400       .  A
C657        H667   1.084       .  S
C658        C659   1.409       .  A
C658        C663   1.475       .  S
C659        C660   1.403       .  A
C659        C664   1.506       .  S
C660        C661   1.403       .  A
C660        H665   1.084       .  S
C661        C662   1.413       .  A
C662        C666   1.507       .  S
C663        C668   1.410       .  A
C663        C672   1.400       .  A
C664        H680   1.110       .  S
C664        H681   1.110       .  S
C664        H682   1.111       .  S
C666        H677   1.110       .  S
C666        H678   1.111       .  S
C666        H679   1.109       .  S
C668        C669   1.399       .  A
C668        C673   1.508       .  S
C669        C670   1.404       .  A
C669        H674   1.084       .  S
C670        C671   1.418       .  A
C671        C672   1.404       .  A
C671        C675   1.508       .  S
C672        H676   1.084       .  S
C673        H683   1.111       .  S
C673        H684   1.110       .  S
C673        H685   1.109       .  S
C675        H686   1.110       .  S
C675        H687   1.107       .  S
C675        H688   1.111       .  S
C689        C690   1.400       .  A
C689        C694   1.397       .  A
C689        H699   1.085       .  S
C690        C691   1.411       .  A
C690        C695   1.477       .  S
C691        C692   1.403       .  A
C691        C696   1.507       .  S
C692        C693   1.406       .  A
C692        H697   1.084       .  S
C693        C694   1.416       .  A
C694        C698   1.508       .  S
C695        C700   1.411       .  A
C695        C704   1.401       .  A
C696        H712   1.109       .  S
C696        H713   1.110       .  S
C696        H714   1.111       .  S
C698        H709   1.111       .  S
C698        H710   1.110       .  S
C698        H711   1.108       .  S
C700        C701   1.402       .  A
C700        C705   1.507       .  S
C701        C702   1.405       .  A
C701        H706   1.084       .  S
C702        C703   1.417       .  A
C703        C704   1.399       .  A
C703        C707   1.508       .  S
C704        H708   1.085       .  S
C705        H715   1.111       .  S
C705        H716   1.109       .  S
C705        H717   1.110       .  S
C707        H718   1.110       .  S
C707        H719   1.107       .  S
C707        H720   1.111       .  S
C721        C722   1.400       .  A
C721        C726   1.397       .  A
C721        H731   1.085       .  S
C722        C723   1.409       .  A
C722        C727   1.474       .  S
C723        C724   1.405       .  A
C723        C728   1.505       .  S
C724        C725   1.404       .  A
C724        H729   1.084       .  S
C725        C726   1.413       .  A
C726        C730   1.509       .  S
C727        C732   1.409       .  A
C727        C736   1.400       .  A
C728        H744   1.110       .  S
C728        H745   1.110       .  S
C728        H746   1.111       .  S
C730        H741   1.110       .  S
C730        H742   1.111       .  S
C730        H743   1.107       .  S
C732        C733   1.402       .  A
C732        C737   1.506       .  S
C733        C734   1.404       .  A
C733        H738   1.084       .  S
C734        C735   1.416       .  A
C735        C736   1.399       .  A
C735        C739   1.508       .  S
C736        H740   1.085       .  S
C737        H747   1.111       .  S
C737        H748   1.110       .  S
C737        H749   1.110       .  S
C739        H750   1.110       .  S
C739        H751   1.108       .  S
C739        H752   1.110       .  S
C753        C754   1.398       .  A
C753        C758   1.398       .  A
C753        H763   1.084       .  S
C754        C755   1.407       .  A
C754        C759   1.472       .  S
C755        C756   1.403       .  A
C755        C760   1.506       .  S
C756        C757   1.406       .  A
C756        H761   1.084       .  S
C757        C758   1.415       .  A
C758        C762   1.506       .  S
C759        C764   1.411       .  A
C759        C768   1.400       .  A
C760        H776   1.110       .  S
C760        H777   1.109       .  S
C760        H778   1.111       .  S
C762        H773   1.111       .  S
C762        H774   1.110       .  S
C762        H775   1.109       .  S
C764        C765   1.399       .  A
C764        C769   1.508       .  S
C765        C766   1.401       .  A
C765        H770   1.084       .  S
C766        C767   1.415       .  A
C767        C768   1.401       .  A
C767        C771   1.508       .  S
C768        H772   1.084       .  S
C769        H779   1.111       .  S
C769        H780   1.110       .  S
C769        H781   1.109       .  S
C771        H782   1.111       .  S
C771        H783   1.107       .  S
C771        H784   1.110       .  S
C785        C786   1.399       .  A
C785        C790   1.400       .  A
C785        H795   1.085       .  S
C786        C787   1.411       .  A
C786        C791   1.481       .  S
C787        C788   1.405       .  A
C787        C792   1.506       .  S
C788        C789   1.407       .  A
C788        H793   1.084       .  S
C789        C790   1.421       .  A
C790        C794   1.510       .  S
C791        C796   1.413       .  A
C791        C800   1.400       .  A
C792        H808   1.109       .  S
C792        H809   1.110       .  S
C792        H810   1.111       .  S
C794        H805   1.111       .  S
C794        H806   1.110       .  S
C794        H807   1.110       .  S
C796        C797   1.405       .  A
C796        C801   1.507       .  S
C797        C798   1.404       .  A
C797        H802   1.084       .  S
C798        C799   1.415       .  A
C799        C800   1.399       .  A
C799        C803   1.507       .  S
C800        H804   1.084       .  S
C801        H811   1.111       .  S
C801        H812   1.109       .  S
C801        H813   1.110       .  S
C803        H814   1.110       .  S
C803        H815   1.108       .  S
C803        H816   1.110       .  S
C817        C818   1.400       .  A
C817        C822   1.402       .  A
C817        H827   1.084       .  S
C818        C819   1.411       .  A
C818        C823   1.479       .  S
C819        C820   1.403       .  A
C819        C824   1.507       .  S
C820        C821   1.402       .  A
C820        H825   1.084       .  S
C821        C822   1.416       .  A
C822        C826   1.508       .  S
C823        C828   1.410   1_545  A
C823        C832   1.401   1_545  A
C824        H840   1.110       .  S
C824        H841   1.109       .  S
C824        H842   1.111       .  S
C826        H837   1.110       .  S
C826        H838   1.110       .  S
C826        H839   1.108       .  S
C828        C829   1.402       .  A
C828        C833   1.507   1_565  S
C829        C830   1.404       .  A
C829        H834   1.084       .  S
C830        C831   1.417       .  A
C831        C832   1.405       .  A
C831        C835   1.507       .  S
C832        H836   1.084   1_565  S
C833        H843   1.111   1_545  S
C833        H844   1.110       .  S
C833        H845   1.109       .  S
C835        H846   1.110       .  S
C835        H847   1.106       .  S
C835        H848   1.111       .  S
C849        C850   1.401   1_565  A
C849        C854   1.401       .  A
C849        H859   1.084   1_565  S
C850        C851   1.410       .  A
C850        C855   1.476       .  S
C851        C852   1.402   1_545  A
C851        C856   1.506       .  S
C852        C853   1.402       .  A
C852        H857   1.084       .  S
C853        C854   1.415       .  A
C854        C858   1.508       .  S
C855        C860   1.409       .  A
C855        C864   1.398       .  A
C856        H872   1.110       .  S
C856        H873   1.110       .  S
C856        H874   1.111       .  S
C858        H869   1.111       .  S
C858        H870   1.110       .  S
C858        H871   1.107       .  S
C860        C861   1.402       .  A
C860        C865   1.506       .  S
C861        C862   1.406       .  A
C861        H866   1.084       .  S
C862        C863   1.420       .  A
C863        C864   1.400       .  A
C863        C867   1.507       .  S
C864        H868   1.085       .  S
C865        H875   1.111       .  S
C865        H876   1.110       .  S
C865        H877   1.110       .  S
C867        H878   1.111       .  S
C867        H879   1.102       .  S
C867        H880   1.110       .  S
C881        C882   1.401       .  A
C881        C886   1.398       .  A
C881        H891   1.084       .  S
C882        C883   1.415       .  A
C882        C887   1.485   1_556  S
C883        C884   1.406       .  A
C883        C888   1.507       .  S
C884        C885   1.404       .  A
C884        H889   1.084       .  S
C885        C886   1.416       .  A
C886        C890   1.509       .  S
C887        C892   1.414       .  A
C887        C896   1.402       .  A
C888        H904   1.108       .  S
C888        H905   1.110       .  S
C888        H906   1.111       .  S
C890        H901   1.111       .  S
C890        H902   1.110       .  S
C890        H903   1.108       .  S
C892        C893   1.405       .  A
C892        C897   1.508       .  S
C893        C894   1.405       .  A
C893        H898   1.084       .  S
C894        C895   1.417       .  A
C895        C896   1.400       .  A
C895        C899   1.509       .  S
C896        H900   1.084       .  S
C897        H907   1.111       .  S
C897        H908   1.108       .  S
C897        H909   1.110       .  S
C899        H910   1.110       .  S
C899        H911   1.107       .  S
C899        H912   1.111       .  S
C913        C914   1.400       .  A
C913        C918   1.400       .  A
C913        H923   1.085       .  S
C914        C915   1.410       .  A
C914        C919   1.475       .  S
C915        C916   1.403       .  A
C915        C920   1.506       .  S
C916        C917   1.403       .  A
C916        H921   1.084       .  S
C917        C918   1.414       .  A
C918        C922   1.507       .  S
C919        C924   1.410       .  A
C919        C928   1.399       .  A
C920        H936   1.110       .  S
C920        H937   1.110       .  S
C920        H938   1.111       .  S
C922        H933   1.110       .  S
C922        H934   1.110       .  S
C922        H935   1.108       .  S
C924        C925   1.399       .  A
C924        C929   1.508       .  S
C925        C926   1.404       .  A
C925        H930   1.084       .  S
C926        C927   1.419       .  A
C927        C928   1.403       .  A
C927        C931   1.508       .  S
C928        H932   1.084       .  S
C929        H939   1.111       .  S
C929        H940   1.110       .  S
C929        H941   1.110       .  S
C931        H942   1.110       .  S
C931        H943   1.107       .  S
C931        H944   1.111       .  S
C945        C946   1.400       .  A
C945        C950   1.401   1_556  A
C945        H955   1.085       .  S
C946        C947   1.409       .  A
C946        C951   1.477       .  S
C947        C948   1.403   1_556  A
C947        C952   1.506       .  S
C948        C949   1.404       .  A
C948        H953   1.084       .  S
C949        C950   1.416       .  A
C950        C954   1.509       .  S
C951        C956   1.408       .  A
C951        C960   1.401       .  A
C952        H968   1.110       .  S
C952        H969   1.110       .  S
C952        H970   1.111       .  S
C954        H965   1.111       .  S
C954        H966   1.110       .  S
C954        H967   1.107       .  S
C956        C957   1.400       .  A
C956        C961   1.507       .  S
C957        C958   1.405       .  A
C957        H962   1.084       .  S
C958        C959   1.418       .  A
C959        C960   1.404       .  A
C959        C963   1.509       .  S
C960        H964   1.085       .  S
C961        H971   1.111       .  S
C961        H972   1.110       .  S
C961        H973   1.110       .  S
C963        H974   1.111       .  S
C963        H975   1.105       .  S
C963        H976   1.110       .  S
C977        C978   1.401       .  A
C977        C982   1.399       .  A
C977        H987   1.085       .  S
C978        C979   1.412       .  A
C978        C983   1.482       .  S
C979        C980   1.405       .  A
C979        C984   1.507       .  S
C980        C981   1.405       .  A
C980        H985   1.084       .  S
C981        C982   1.417       .  A
C982        C986   1.509       .  S
C983        C988   1.413       .  A
C983        C992   1.401       .  A
C984       H1000   1.109       .  S
C984       H1001   1.110       .  S
C984       H1002   1.111       .  S
C986        H997   1.111       .  S
C986        H998   1.110       .  S
C986        H999   1.108       .  S
C988        C989   1.404       .  A
C988        C993   1.507       .  S
C989        C990   1.405       .  A
C989        H994   1.084       .  S
C990        C991   1.416       .  A
C991        C992   1.399       .  A
C991        C995   1.508       .  S
C992        H996   1.085       .  S
C993       H1003   1.111       .  S
C993       H1004   1.108       .  S
C993       H1005   1.110       .  S
C995       H1006   1.110       .  S
C995       H1007   1.108       .  S
C995       H1008   1.111       .  S
C1009      C1010   1.397       .  A
C1009      C1014   1.399       .  A
C1009      H1019   1.085       .  S
C1010      C1011   1.409       .  A
C1010      C1015   1.479       .  S
C1011      C1012   1.406       .  A
C1011      C1016   1.505       .  S
C1012      C1013   1.408       .  A
C1012      H1017   1.084       .  S
C1013      C1014   1.424       .  A
C1014      C1018   1.511       .  S
C1015      C1020   1.411       .  A
C1015      C1024   1.401       .  A
C1016      H1032   1.110       .  S
C1016      H1033   1.110       .  S
C1016      H1034   1.111       .  S
C1018      H1029   1.110       .  S
C1018      H1030   1.111       .  S
C1018      H1031   1.110       .  S
C1020      C1021   1.403       .  A
C1020      C1025   1.506       .  S
C1021      C1022   1.403       .  A
C1021      H1026   1.084       .  S
C1022      C1023   1.415       .  A
C1023      C1024   1.400       .  A
C1023      C1027   1.508       .  S
C1024      H1028   1.084       .  S
C1025      H1035   1.111       .  S
C1025      H1036   1.109       .  S
C1025      H1037   1.110       .  S
C1027      H1038   1.110       .  S
C1027      H1039   1.108       .  S
C1027      H1040   1.111       .  S
C1041      C1042   1.401       .  A
C1041      C1046   1.400       .  A
C1041      H1051   1.085       .  S
C1042      C1043   1.412       .  A
C1042      C1047   1.482       .  S
C1043      C1044   1.404       .  A
C1043      C1048   1.506       .  S
C1044      C1045   1.404       .  A
C1044      H1049   1.084       .  S
C1045      C1046   1.417       .  A
C1046      C1050   1.508       .  S
C1047      C1052   1.410       .  A
C1047      C1056   1.400       .  A
C1048      H1064   1.109       .  S
C1048      H1065   1.110       .  S
C1048      H1066   1.111       .  S
C1050      H1061   1.110       .  S
C1050      H1062   1.110       .  S
C1050      H1063   1.108       .  S
C1052      C1053   1.405       .  A
C1052      C1057   1.506       .  S
C1053      C1054   1.406       .  A
C1053      H1058   1.084       .  S
C1054      C1055   1.420       .  A
C1055      C1056   1.402       .  A
C1055      C1059   1.510       .  S
C1056      H1060   1.084       .  S
C1057      H1067   1.111       .  S
C1057      H1068   1.109       .  S
C1057      H1069   1.110       .  S
C1059      H1070   1.111       .  S
C1059      H1071   1.109       .  S
C1059      H1072   1.110       .  S
C1073      C1074   1.396       .  A
C1073      C1078   1.398       .  A
C1073      H1083   1.085       .  S
C1074      C1075   1.409       .  A
C1074      C1079   1.482       .  S
C1075      C1076   1.409       .  A
C1075      C1080   1.505       .  S
C1076      C1077   1.411       .  A
C1076      H1081   1.084       .  S
C1077      C1078   1.426       .  A
C1078      C1082   1.511       .  S
C1079      C1084   1.413       .  A
C1079      C1088   1.401       .  A
C1080      H1096   1.110       .  S
C1080      H1097   1.110       .  S
C1080      H1098   1.111       .  S
C1082      H1093   1.109       .  S
C1082      H1094   1.111       .  S
C1082      H1095   1.110       .  S
C1084      C1085   1.404       .  A
C1084      C1089   1.507       .  S
C1085      C1086   1.401       .  A
C1085      H1090   1.084       .  S
C1086      C1087   1.413       .  A
C1087      C1088   1.403       .  A
C1087      C1091   1.506       .  S
C1088      H1092   1.084       .  S
C1089      H1099   1.111       .  S
C1089      H1100   1.109       .  S
C1089      H1101   1.110       .  S
C1091      H1102   1.111       .  S
C1091      H1103   1.107       .  S
C1091      H1104   1.110       .  S
C1105      C1106   1.401       .  A
C1105      C1110   1.403       .  A
C1105      H1115   1.085       .  S
C1106      C1107   1.409       .  A
C1106      C1111   1.476       .  S
C1107      C1108   1.400   1_554  A
C1107      C1112   1.507       .  S
C1108      C1109   1.403       .  A
C1108      H1113   1.085       .  S
C1109      C1110   1.415   1_556  A
C1110      C1114   1.507   1_554  S
C1111      C1116   1.409       .  A
C1111      C1120   1.400       .  A
C1112      H1128   1.110       .  S
C1112      H1129   1.110       .  S
C1112      H1130   1.111       .  S
C1114      H1125   1.111       .  S
C1114      H1126   1.110   1_556  S
C1114      H1127   1.107       .  S
C1116      C1117   1.401       .  A
C1116      C1121   1.507       .  S
C1117      C1118   1.404       .  A
C1117      H1122   1.084       .  S
C1118      C1119   1.417       .  A
C1119      C1120   1.403       .  A
C1119      C1123   1.508       .  S
C1120      H1124   1.084       .  S
C1121      H1131   1.111       .  S
C1121      H1132   1.110       .  S
C1121      H1133   1.110       .  S
C1123      H1134   1.111       .  S
C1123      H1135   1.111       .  S
C1123      H1136   1.109       .  S
C1137      C1138   1.400       .  A
C1137      C1142   1.400       .  A
C1137      H1147   1.085       .  S
C1138      C1139   1.410       .  A
C1138      C1143   1.478       .  S
C1139      C1140   1.404       .  A
C1139      C1144   1.506       .  S
C1140      C1141   1.404       .  A
C1140      H1145   1.084       .  S
C1141      C1142   1.416       .  A
C1142      C1146   1.508       .  S
C1143      C1148   1.410       .  A
C1143      C1152   1.399       .  A
C1144      H1160   1.110       .  S
C1144      H1161   1.109       .  S
C1144      H1162   1.111       .  S
C1146      H1157   1.110       .  S
C1146      H1158   1.111       .  S
C1146      H1159   1.108       .  S
C1148      C1149   1.402       .  A
C1148      C1153   1.508       .  S
C1149      C1150   1.406       .  A
C1149      H1154   1.084       .  S
C1150      C1151   1.420       .  A
C1151      C1152   1.405       .  A
C1151      C1155   1.508       .  S
C1152      H1156   1.084       .  S
C1153      H1163   1.111       .  S
C1153      H1164   1.110       .  S
C1153      H1165   1.109       .  S
C1155      H1166   1.109       .  S
C1155      H1167   1.110       .  S
C1155      H1168   1.111       .  S
C1169      C1170   1.401       .  A
C1169      C1174   1.402   1_554  A
C1169      H1179   1.084       .  S
C1170      C1171   1.410       .  A
C1170      C1175   1.477       .  S
C1171      C1172   1.402   1_554  A
C1171      C1176   1.506       .  S
C1172      C1173   1.403       .  A
C1172      H1177   1.084       .  S
C1173      C1174   1.415       .  A
C1174      C1178   1.508       .  S
C1175      C1180   1.406       .  A
C1175      C1184   1.399       .  A
C1176      H1192   1.110       .  S
C1176      H1193   1.110       .  S
C1176      H1194   1.111       .  S
C1178      H1189   1.110       .  S
C1178      H1190   1.110       .  S
C1178      H1191   1.108       .  S
C1180      C1181   1.400       .  A
C1180      C1185   1.507       .  S
C1181      C1182   1.410       .  A
C1181      H1186   1.084       .  S
C1182      C1183   1.424       .  A
C1183      C1184   1.406       .  A
C1183      C1187   1.508       .  S
C1184      H1188   1.084       .  S
C1185      H1195   1.111       .  S
C1185      H1196   1.110       .  S
C1185      H1197   1.110       .  S
C1187      H1198   1.111       .  S
C1187      H1199   1.110       .  S
C1187      H1200   1.110       .  S
C1201      C1202   1.401       .  A
C1201      C1206   1.399       .  A
C1201      H1211   1.085       .  S
C1202      C1203   1.414       .  A
C1202      C1207   1.484       .  S
C1203      C1204   1.405       .  A
C1203      C1208   1.507       .  S
C1204      C1205   1.404       .  A
C1204      H1209   1.085       .  S
C1205      C1206   1.416       .  A
C1206      C1210   1.508       .  S
C1207      C1212   1.414   1_655  A
C1207      C1216   1.402       .  A
C1208      H1224   1.108       .  S
C1208      H1225   1.110       .  S
C1208      H1226   1.111       .  S
C1210      H1221   1.111       .  S
C1210      H1222   1.110       .  S
C1210      H1223   1.108       .  S
C1212      C1213   1.404       .  A
C1212      C1217   1.507       .  S
C1213      C1214   1.405       .  A
C1213      H1218   1.084       .  S
C1214      C1215   1.416       .  A
C1215      C1216   1.400   1_455  A
C1215      C1219   1.508       .  S
C1216      H1220   1.085       .  S
C1217      H1227   1.111       .  S
C1217      H1228   1.108   1_455  S
C1217      H1229   1.110   1_455  S
C1219      H1230   1.110       .  S
C1219      H1231   1.108       .  S
C1219      H1232   1.111   1_455  S
C1233      C1234   1.400       .  A
C1233      C1238   1.402       .  A
C1233      H1243   1.084       .  S
C1234      C1235   1.410       .  A
C1234      C1239   1.479       .  S
C1235      C1236   1.404       .  A
C1235      C1240   1.506       .  S
C1236      C1237   1.404       .  A
C1236      H1241   1.084       .  S
C1237      C1238   1.413       .  A
C1238      C1242   1.505       .  S
C1239      C1244   1.407       .  A
C1239      C1248   1.398       .  A
C1240      H1256   1.110       .  S
C1240      H1257   1.110       .  S
C1240      H1258   1.111       .  S
C1242      H1253   1.111       .  S
C1242      H1254   1.110       .  S
C1242      H1255   1.107       .  S
C1244      C1245   1.402       .  A
C1244      C1249   1.507       .  S
C1245      C1246   1.410       .  A
C1245      H1250   1.083       .  S
C1246      C1247   1.424       .  A
C1247      C1248   1.405       .  A
C1247      C1251   1.509       .  S
C1248      H1252   1.084       .  S
C1249      H1259   1.111       .  S
C1249      H1260   1.110       .  S
C1249      H1261   1.110       .  S
C1251      H1262   1.110       .  S
C1251      H1263   1.111       .  S
C1251      H1264   1.111       .  S
C1265      C1266   1.400       .  A
C1265      C1270   1.406       .  A
C1265      H1275   1.085       .  S
C1266      C1267   1.409       .  A
C1266      C1271   1.477       .  S
C1267      C1268   1.398       .  A
C1267      C1272   1.508       .  S
C1268      C1269   1.405       .  A
C1268      H1273   1.085       .  S
C1269      C1270   1.421       .  A
C1270      C1274   1.508       .  S
C1271      C1276   1.410       .  A
C1271      C1280   1.400       .  A
C1272      H1288   1.110       .  S
C1272      H1289   1.110       .  S
C1272      H1290   1.111       .  S
C1274      H1285   1.110       .  S
C1274      H1286   1.111       .  S
C1274      H1287   1.104       .  S
C1276      C1277   1.405       .  A
C1276      C1281   1.505       .  S
C1277      C1278   1.403       .  A
C1277      H1282   1.084       .  S
C1278      C1279   1.414       .  A
C1279      C1280   1.399       .  A
C1279      C1283   1.508       .  S
C1280      H1284   1.085       .  S
C1281      H1291   1.111       .  S
C1281      H1292   1.110       .  S
C1281      H1293   1.110       .  S
C1283      H1294   1.110       .  S
C1283      H1295   1.109       .  S
C1283      H1296   1.110       .  S
C1297      C1298   1.399       .  A
C1297      C1302   1.403       .  A
C1297      H1307   1.085       .  S
C1298      C1299   1.410       .  A
C1298      C1303   1.477       .  S
C1299      C1300   1.401       .  A
C1299      C1304   1.508       .  S
C1300      C1301   1.405       .  A
C1300      H1305   1.084       .  S
C1301      C1302   1.418       .  A
C1302      C1306   1.508       .  S
C1303      C1308   1.410       .  A
C1303      C1312   1.399       .  A
C1304      H1320   1.110       .  S
C1304      H1321   1.110       .  S
C1304      H1322   1.111       .  S
C1306      H1317   1.111       .  S
C1306      H1318   1.110       .  S
C1306      H1319   1.107       .  S
C1308      C1309   1.404       .  A
C1308      C1313   1.505       .  S
C1309      C1310   1.404       .  A
C1309      H1314   1.084       .  S
C1310      C1311   1.416       .  A
C1311      C1312   1.398       .  A
C1311      C1315   1.508       .  S
C1312      H1316   1.085       .  S
C1313      H1323   1.111       .  S
C1313      H1324   1.110       .  S
C1313      H1325   1.110       .  S
C1315      H1326   1.110       .  S
C1315      H1327   1.108       .  S
C1315      H1328   1.110       .  S
C1329      C1330   1.399       .  A
C1329      C1334   1.400       .  A
C1329      H1339   1.085       .  S
C1330      C1331   1.409       .  A
C1330      C1335   1.474       .  S
C1331      C1332   1.400       .  A
C1331      C1336   1.506       .  S
C1332      C1333   1.403       .  A
C1332      H1337   1.085       .  S
C1333      C1334   1.417       .  A
C1334      C1338   1.508   1_655  S
C1335      C1340   1.406       .  A
C1335      C1344   1.398       .  A
C1336      H1352   1.110       .  S
C1336      H1353   1.110       .  S
C1336      H1354   1.111       .  S
C1338      H1349   1.110       .  S
C1338      H1350   1.111   1_455  S
C1338      H1351   1.107       .  S
C1340      C1341   1.399       .  A
C1340      C1345   1.507       .  S
C1341      C1342   1.409       .  A
C1341      H1346   1.083       .  S
C1342      C1343   1.424       .  A
C1343      C1344   1.404       .  A
C1343      C1347   1.508       .  S
C1344      H1348   1.084       .  S
C1345      H1355   1.111       .  S
C1345      H1356   1.110       .  S
C1345      H1357   1.110       .  S
C1347      H1358   1.111       .  S
C1347      H1359   1.109       .  S
C1347      H1360   1.110       .  S
C1361      C1362   1.401       .  A
C1361      C1366   1.404       .  A
C1361      H1371   1.083       .  S
C1362      C1363   1.410       .  A
C1362      C1367   1.474       .  S
C1363      C1364   1.399       .  A
C1363      C1368   1.507       .  S
C1364      C1365   1.402       .  A
C1364      H1369   1.084       .  S
C1365      C1366   1.414       .  A
C1366      C1370   1.507       .  S
C1367      C1372   1.408       .  A
C1367      C1376   1.397       .  A
C1368      H1384   1.110       .  S
C1368      H1385   1.110       .  S
C1368      H1386   1.111       .  S
C1370      H1381   1.109       .  S
C1370      H1382   1.111       .  S
C1370      H1383   1.110       .  S
C1372      C1373   1.406       .  A
C1372      C1377   1.505       .  S
C1373      C1374   1.407       .  A
C1373      H1378   1.084       .  S
C1374      C1375   1.418       .  A
C1375      C1376   1.397       .  A
C1375      C1379   1.509       .  S
C1376      H1380   1.085       .  S
C1377      H1387   1.111       .  S
C1377      H1388   1.110       .  S
C1377      H1389   1.110       .  S
C1379      H1390   1.111       .  S
C1379      H1391   1.110       .  S
C1379      H1392   1.109       .  S
C1393      C1394   1.401       .  A
C1393      C1398   1.404       .  A
C1393      H1403   1.084       .  S
C1394      C1395   1.410       .  A
C1394      C1399   1.481       .  S
C1395      C1396   1.404       .  A
C1395      C1400   1.506       .  S
C1396      C1397   1.405       .  A
C1396      H1401   1.084       .  S
C1397      C1398   1.416       .  A
C1398      C1402   1.508       .  S
C1399      C1404   1.410       .  A
C1399      C1408   1.401       .  A
C1400      H1416   1.110       .  S
C1400      H1417   1.110       .  S
C1400      H1418   1.111       .  S
C1402      H1413   1.111       .  S
C1402      H1414   1.110       .  S
C1402      H1415   1.107       .  S
C1404      C1405   1.403       .  A
C1404      C1409   1.506       .  S
C1405      C1406   1.404   1_655  A
C1405      H1410   1.084       .  S
C1406      C1407   1.417   1_455  A
C1407      C1408   1.404       .  A
C1407      C1411   1.508   1_655  S
C1408      H1412   1.084       .  S
C1409      H1419   1.111       .  S
C1409      H1420   1.110       .  S
C1409      H1421   1.110       .  S
C1411      H1422   1.110       .  S
C1411      H1423   1.107       .  S
C1411      H1424   1.110       .  S
C1425      C1426   1.400       .  A
C1425      C1430   1.399       .  A
C1425      H1435   1.084       .  S
C1426      C1427   1.410       .  A
C1426      C1431   1.475       .  S
C1427      C1428   1.403       .  A
C1427      C1432   1.507       .  S
C1428      C1429   1.405       .  A
C1428      H1433   1.083       .  S
C1429      C1430   1.415       .  A
C1430      C1434   1.508       .  S
C1431      C1436   1.410       .  A
C1431      C1440   1.402       .  A
C1432      H1448   1.110       .  S
C1432      H1449   1.108       .  S
C1432      H1450   1.111       .  S
C1434      H1445   1.110       .  S
C1434      H1446   1.111       .  S
C1434      H1447   1.108       .  S
C1436      C1437   1.396       .  A
C1436      C1441   1.510       .  S
C1437      C1438   1.404       .  A
C1437      H1442   1.085       .  S
C1438      C1439   1.418       .  A
C1439      C1440   1.405       .  A
C1439      C1443   1.508       .  S
C1440      H1444   1.085       .  S
C1441      H1451   1.111       .  S
C1441      H1452   1.110       .  S
C1441      H1453   1.107       .  S
C1443      H1454   1.111       .  S
C1443      H1455   1.106       .  S
C1443      H1456   1.110       .  S
C1457      C1458   1.399       .  A
C1457      C1462   1.402       .  A
C1457      H1467   1.084       .  S
C1458      C1459   1.409       .  A
C1458      C1463   1.479       .  S
C1459      C1460   1.404       .  A
C1459      C1464   1.506       .  S
C1460      C1461   1.407       .  A
C1460      H1465   1.084       .  S
C1461      C1462   1.420       .  A
C1462      C1466   1.509       .  S
C1463      C1468   1.412       .  A
C1463      C1472   1.402       .  A
C1464      H1480   1.110       .  S
C1464      H1481   1.110       .  S
C1464      H1482   1.111       .  S
C1466      H1477   1.111       .  S
C1466      H1478   1.111       .  S
C1466      H1479   1.109       .  S
C1468      C1469   1.402       .  A
C1468      C1473   1.506       .  S
C1469      C1470   1.400   1_565  A
C1469      H1474   1.084       .  S
C1470      C1471   1.411   1_545  A
C1471      C1472   1.403       .  A
C1471      C1475   1.506   1_565  S
C1472      H1476   1.084       .  S
C1473      H1483   1.111       .  S
C1473      H1484   1.110       .  S
C1473      H1485   1.110       .  S
C1475      H1486   1.111   1_545  S
C1475      H1487   1.110       .  S
C1475      H1488   1.110       .  S
C1489      C1490   1.398       .  A
C1489      C1494   1.399       .  A
C1489      H1499   1.085       .  S
C1490      C1491   1.410       .  A
C1490      C1495   1.478       .  S
C1491      C1492   1.404       .  A
C1491      C1496   1.506       .  S
C1492      C1493   1.406       .  A
C1492      H1497   1.084       .  S
C1493      C1494   1.422       .  A
C1494      C1498   1.511       .  S
C1495      C1500   1.411       .  A
C1495      C1504   1.400       .  A
C1496      H1512   1.109       .  S
C1496      H1513   1.110       .  S
C1496      H1514   1.110       .  S
C1498      H1509   1.111       .  S
C1498      H1510   1.109       .  S
C1498      H1511   1.111       .  S
C1500      C1501   1.402       .  A
C1500      C1505   1.507       .  S
C1501      C1502   1.404       .  A
C1501      H1506   1.084       .  S
C1502      C1503   1.416       .  A
C1503      C1504   1.399       .  A
C1503      C1507   1.508       .  S
C1504      H1508   1.085       .  S
C1505      H1515   1.111       .  S
C1505      H1516   1.109       .  S
C1505      H1517   1.110       .  S
C1507      H1518   1.110       .  S
C1507      H1519   1.108       .  S
C1507      H1520   1.110       .  S
C1521      C1522   1.401       .  A
C1521      C1526   1.407       .  A
C1521      H1531   1.085       .  S
C1522      C1523   1.409       .  A
C1522      C1527   1.478       .  S
C1523      C1524   1.399       .  A
C1523      C1528   1.508       .  S
C1524      C1525   1.406       .  A
C1524      H1529   1.085       .  S
C1525      C1526   1.420       .  A
C1526      C1530   1.508       .  S
C1527      C1532   1.410       .  A
C1527      C1536   1.400       .  A
C1528      H1544   1.110       .  S
C1528      H1545   1.110       .  S
C1528      H1546   1.111       .  S
C1530      H1541   1.110       .  S
C1530      H1542   1.111       .  S
C1530      H1543   1.104       .  S
C1532      C1533   1.406       .  A
C1532      C1537   1.505       .  S
C1533      C1534   1.404       .  A
C1533      H1538   1.084       .  S
C1534      C1535   1.414       .  A
C1535      C1536   1.399       .  A
C1535      C1539   1.508       .  S
C1536      H1540   1.085       .  S
C1537      H1547   1.111       .  S
C1537      H1548   1.110       .  S
C1537      H1549   1.110       .  S
C1539      H1550   1.110       .  S
C1539      H1551   1.108       .  S
C1539      H1552   1.110       .  S
C1553      C1554   1.401       .  A
C1553      C1558   1.405       .  A
C1553      H1563   1.084       .  S
C1554      C1555   1.410       .  A
C1554      C1559   1.478       .  S
C1555      C1556   1.401       .  A
C1555      C1560   1.507       .  S
C1556      C1557   1.404       .  A
C1556      H1561   1.084       .  S
C1557      C1558   1.416       .  A
C1558      C1562   1.508       .  S
C1559      C1564   1.411       .  A
C1559      C1568   1.401       .  A
C1560      H1576   1.110       .  S
C1560      H1577   1.110       .  S
C1560      H1578   1.111       .  S
C1562      H1573   1.111       .  S
C1562      H1574   1.109       .  S
C1562      H1575   1.111       .  S
C1564      C1565   1.403   1_556  A
C1564      C1569   1.506       .  S
C1565      C1566   1.402       .  A
C1565      H1570   1.085       .  S
C1566      C1567   1.413       .  A
C1567      C1568   1.401   1_554  A
C1567      C1571   1.507       .  S
C1568      H1572   1.085       .  S
C1569      H1579   1.111   1_556  S
C1569      H1580   1.110       .  S
C1569      H1581   1.110       .  S
C1571      H1582   1.110       .  S
C1571      H1583   1.108       .  S
C1571      H1584   1.111       .  S
C1585      C1586   1.401       .  A
C1585      C1590   1.402       .  A
C1585      H1595   1.084       .  S
C1586      C1587   1.410       .  A
C1586      C1591   1.480       .  S
C1587      C1588   1.404       .  A
C1587      C1592   1.506       .  S
C1588      C1589   1.404       .  A
C1588      H1593   1.084       .  S
C1589      C1590   1.415       .  A
C1590      C1594   1.508       .  S
C1591      C1596   1.410       .  A
C1591      C1600   1.399       .  A
C1592      H1608   1.110       .  S
C1592      H1609   1.110       .  S
C1592      H1610   1.111       .  S
C1594      H1605   1.110       .  S
C1594      H1606   1.110       .  S
C1594      H1607   1.107       .  S
C1596      C1597   1.405       .  A
C1596      C1601   1.507       .  S
C1597      C1598   1.407       .  A
C1597      H1602   1.084       .  S
C1598      C1599   1.418       .  A
C1599      C1600   1.404       .  A
C1599      C1603   1.508       .  S
C1600      H1604   1.084       .  S
C1601      H1611   1.111       .  S
C1601      H1612   1.110       .  S
C1601      H1613   1.110       .  S
C1603      H1614   1.111       .  S
C1603      H1615   1.109       .  S
C1603      H1616   1.110       .  S
C1617      C1618   1.397       .  A
C1617      C1622   1.402       .  A
C1617      H1627   1.084       .  S
C1618      C1619   1.409       .  A
C1618      C1623   1.484       .  S
C1619      C1620   1.408       .  A
C1619      C1624   1.505       .  S
C1620      C1621   1.411       .  A
C1620      H1625   1.084       .  S
C1621      C1622   1.426       .  A
C1622      C1626   1.510       .  S
C1623      C1628   1.412       .  A
C1623      C1632   1.401       .  A
C1624      H1640   1.110       .  S
C1624      H1641   1.110       .  S
C1624      H1642   1.111       .  S
C1626      H1637   1.111       .  S
C1626      H1638   1.110       .  S
C1626      H1639   1.110       .  S
C1628      C1629   1.406       .  A
C1628      C1633   1.506       .  S
C1629      C1630   1.403       .  A
C1629      H1634   1.084       .  S
C1630      C1631   1.416       .  A
C1631      C1632   1.402       .  A
C1631      C1635   1.507       .  S
C1632      H1636   1.084       .  S
C1633      H1643   1.111       .  S
C1633      H1644   1.110       .  S
C1633      H1645   1.110       .  S
C1635      H1646   1.110       .  S
C1635      H1647   1.108       .  S
C1635      H1648   1.110       .  S
C1649      C1650   1.402       .  A
C1649      C1654   1.409       .  A
C1649      H1659   1.084       .  S
C1650      C1651   1.410       .  A
C1650      C1655   1.481       .  S
C1651      C1652   1.400       .  A
C1651      C1656   1.508       .  S
C1652      C1653   1.405       .  A
C1652      H1657   1.084       .  S
C1653      C1654   1.417       .  A
C1654      C1658   1.506       .  S
C1655      C1660   1.410       .  A
C1655      C1664   1.401       .  A
C1656      H1672   1.110       .  S
C1656      H1673   1.110       .  S
C1656      H1674   1.111       .  S
C1658      H1669   1.111       .  S
C1658      H1670   1.110       .  S
C1658      H1671   1.110       .  S
C1660      C1661   1.405       .  A
C1660      C1665   1.505       .  S
C1661      C1662   1.404       .  A
C1661      H1666   1.084       .  S
C1662      C1663   1.415       .  A
C1663      C1664   1.401       .  A
C1663      C1667   1.507       .  S
C1664      H1668   1.085       .  S
C1665      H1675   1.111       .  S
C1665      H1676   1.110       .  S
C1665      H1677   1.110       .  S
C1667      H1678   1.111       .  S
C1667      H1679   1.108       .  S
C1667      H1680   1.110       .  S
C1681      C1682   1.402       .  A
C1681      C1686   1.404       .  A
C1681      H1691   1.084       .  S
C1682      C1683   1.411       .  A
C1682      C1687   1.478       .  S
C1683      C1684   1.401       .  A
C1683      C1688   1.507       .  S
C1684      C1685   1.402       .  A
C1684      H1689   1.084       .  S
C1685      C1686   1.412       .  A
C1686      C1690   1.506       .  S
C1687      C1692   1.409       .  A
C1687      C1696   1.399       .  A
C1688      H1704   1.110       .  S
C1688      H1705   1.110       .  S
C1688      H1706   1.111       .  S
C1690      H1701   1.111       .  S
C1690      H1702   1.110       .  S
C1690      H1703   1.110       .  S
C1692      C1693   1.402       .  A
C1692      C1697   1.507       .  S
C1693      C1694   1.406       .  A
C1693      H1698   1.085       .  S
C1694      C1695   1.420       .  A
C1695      C1696   1.404       .  A
C1695      C1699   1.508       .  S
C1696      H1700   1.085       .  S
C1697      H1707   1.111       .  S
C1697      H1708   1.110       .  S
C1697      H1709   1.110       .  S
C1699      H1710   1.110       .  S
C1699      H1711   1.110       .  S
C1699      H1712   1.111       .  S
C1713      C1714   1.401       .  A
C1713      C1718   1.400       .  A
C1713      H1723   1.084       .  S
C1714      C1715   1.410       .  A
C1714      C1719   1.475       .  S
C1715      C1716   1.402       .  A
C1715      C1720   1.506       .  S
C1716      C1717   1.402       .  A
C1716      H1721   1.084       .  S
C1717      C1718   1.413       .  A
C1718      C1722   1.508       .  S
C1719      C1724   1.408       .  A
C1719      C1728   1.400       .  A
C1720      H1736   1.110       .  S
C1720      H1737   1.110       .  S
C1720      H1738   1.111       .  S
C1722      H1733   1.110       .  S
C1722      H1734   1.110       .  S
C1722      H1735   1.109       .  S
C1724      C1725   1.397       .  A
C1724      C1729   1.508       .  S
C1725      C1726   1.405       .  A
C1725      H1730   1.084       .  S
C1726      C1727   1.419       .  A
C1727      C1728   1.407       .  A
C1727      C1731   1.507       .  S
C1728      H1732   1.084       .  S
C1729      H1739   1.111       .  S
C1729      H1740   1.110       .  S
C1729      H1741   1.110       .  S
C1731      H1742   1.110       .  S
C1731      H1743   1.110       .  S
C1731      H1744   1.111       .  S
C1745      C1746   1.400       .  A
C1745      C1750   1.400       .  A
C1745      H1755   1.085       .  S
C1746      C1747   1.411       .  A
C1746      C1751   1.476       .  S
C1747      C1748   1.402       .  A
C1747      C1752   1.506       .  S
C1748      C1749   1.404       .  A
C1748      H1753   1.084       .  S
C1749      C1750   1.416       .  A
C1750      C1754   1.508       .  S
C1751      C1756   1.410       .  A
C1751      C1760   1.400       .  A
C1752      H1768   1.110       .  S
C1752      H1769   1.110       .  S
C1752      H1770   1.111       .  S
C1754      H1765   1.111       .  S
C1754      H1766   1.110       .  S
C1754      H1767   1.108       .  S
C1756      C1757   1.406       .  A
C1756      C1761   1.505       .  S
C1757      C1758   1.403       .  A
C1757      H1762   1.084       .  S
C1758      C1759   1.414       .  A
C1759      C1760   1.397       .  A
C1759      C1763   1.509       .  S
C1760      H1764   1.085       .  S
C1761      H1771   1.111       .  S
C1761      H1772   1.110       .  S
C1761      H1773   1.110       .  S
C1763      H1774   1.111       .  S
C1763      H1775   1.108       .  S
C1763      H1776   1.110       .  S
C1777      C1778   1.400       .  A
C1777      C1782   1.403       .  A
C1777      H1787   1.085       .  S
C1778      C1779   1.409       .  A
C1778      C1783   1.478       .  S
C1779      C1780   1.401       .  A
C1779      C1784   1.507       .  S
C1780      C1781   1.405       .  A
C1780      H1785   1.084       .  S
C1781      C1782   1.419       .  A
C1782      C1786   1.509       .  S
C1783      C1788   1.411       .  A
C1783      C1792   1.401       .  A
C1784      H1800   1.110       .  S
C1784      H1801   1.110       .  S
C1784      H1802   1.111       .  S
C1786      H1797   1.111       .  S
C1786      H1798   1.110       .  S
C1786      H1799   1.106       .  S
C1788      C1789   1.402       .  A
C1788      C1793   1.507       .  S
C1789      C1790   1.401       .  A
C1789      H1794   1.085       .  S
C1790      C1791   1.411       .  A
C1791      C1792   1.404       .  A
C1791      C1795   1.506       .  S
C1792      H1796   1.085       .  S
C1793      H1803   1.111       .  S
C1793      H1804   1.110       .  S
C1793      H1805   1.110       .  S
C1795      H1806   1.110       .  S
C1795      H1807   1.111       .  S
C1795      H1808   1.111       .  S
C1809      C1810   1.401       .  A
C1809      C1814   1.399       .  A
C1809      H1819   1.084       .  S
C1810      C1811   1.411       .  A
C1810      C1815   1.479   1_556  S
C1811      C1812   1.403       .  A
C1811      C1816   1.507       .  S
C1812      C1813   1.406       .  A
C1812      H1817   1.083       .  S
C1813      C1814   1.417       .  A
C1814      C1818   1.508       .  S
C1815      C1820   1.412       .  A
C1815      C1824   1.400       .  A
C1816      H1832   1.109       .  S
C1816      H1833   1.110       .  S
C1816      H1834   1.111       .  S
C1818      H1829   1.111       .  S
C1818      H1830   1.110       .  S
C1818      H1831   1.108       .  S
C1820      C1821   1.405       .  A
C1820      C1825   1.507       .  S
C1821      C1822   1.405       .  A
C1821      H1826   1.084       .  S
C1822      C1823   1.416       .  A
C1823      C1824   1.398       .  A
C1823      C1827   1.508       .  S
C1824      H1828   1.084       .  S
C1825      H1835   1.111       .  S
C1825      H1836   1.109       .  S
C1825      H1837   1.110       .  S
C1827      H1838   1.110       .  S
C1827      H1839   1.108       .  S
C1827      H1840   1.111       .  S
C1841      C1842   1.400       .  A
C1841      C1846   1.399       .  A
C1841      H1851   1.084       .  S
C1842      C1843   1.410       .  A
C1842      C1847   1.477       .  S
C1843      C1844   1.405       .  A
C1843      C1848   1.506       .  S
C1844      C1845   1.405       .  A
C1844      H1849   1.084       .  S
C1845      C1846   1.415       .  A
C1846      C1850   1.508       .  S
C1847      C1852   1.411       .  A
C1847      C1856   1.401       .  A
C1848      H1864   1.110       .  S
C1848      H1865   1.109       .  S
C1848      H1866   1.111       .  S
C1850      H1861   1.110       .  S
C1850      H1862   1.110       .  S
C1850      H1863   1.108       .  S
C1852      C1853   1.400       .  A
C1852      C1857   1.508       .  S
C1853      C1854   1.403       .  A
C1853      H1858   1.084       .  S
C1854      C1855   1.417       .  A
C1855      C1856   1.405       .  A
C1855      C1859   1.508       .  S
C1856      H1860   1.084       .  S
C1857      H1867   1.111       .  S
C1857      H1868   1.110       .  S
C1857      H1869   1.109       .  S
C1859      H1870   1.111       .  S
C1859      H1871   1.106       .  S
C1859      H1872   1.110       .  S
C1873      C1874   1.401       .  A
C1873      C1878   1.401       .  A
C1873      H1883   1.085       .  S
C1874      C1875   1.411       .  A
C1874      C1879   1.478       .  S
C1875      C1876   1.404       .  A
C1875      C1880   1.506       .  S
C1876      C1877   1.402       .  A
C1876      H1881   1.084       .  S
C1877      C1878   1.414       .  A
C1878      C1882   1.508       .  S
C1879      C1884   1.408       .  A
C1879      C1888   1.399       .  A
C1880      H1896   1.110       .  S
C1880      H1897   1.110       .  S
C1880      H1898   1.111       .  S
C1882      H1893   1.111       .  S
C1882      H1894   1.110       .  S
C1882      H1895   1.108       .  S
C1884      C1885   1.403       .  A
C1884      C1889   1.506       .  S
C1885      C1886   1.408       .  A
C1885      H1890   1.084       .  S
C1886      C1887   1.419       .  A
C1887      C1888   1.403       .  A
C1887      C1891   1.507       .  S
C1888      H1892   1.084       .  S
C1889      H1899   1.111       .  S
C1889      H1900   1.110       .  S
C1889      H1901   1.110       .  S
C1891      H1902   1.111       .  S
C1891      H1903   1.109       .  S
C1891      H1904   1.109       .  S
C1905      C1906   1.400       .  A
C1905      C1910   1.402       .  A
C1905      H1915   1.085       .  S
C1906      C1907   1.410       .  A
C1906      C1911   1.480       .  S
C1907      C1908   1.405       .  A
C1907      C1912   1.506       .  S
C1908      C1909   1.404       .  A
C1908      H1913   1.084       .  S
C1909      C1910   1.419       .  A
C1910      C1914   1.510       .  S
C1911      C1916   1.411       .  A
C1911      C1920   1.401       .  A
C1912      H1928   1.110       .  S
C1912      H1929   1.110       .  S
C1912      H1930   1.111       .  S
C1914      H1925   1.110       .  S
C1914      H1926   1.111       .  S
C1914      H1927   1.106       .  S
C1916      C1917   1.405       .  A
C1916      C1921   1.506       .  S
C1917      C1918   1.403       .  A
C1917      H1922   1.084       .  S
C1918      C1919   1.415       .  A
C1919      C1920   1.401       .  A
C1919      C1923   1.508       .  S
C1920      H1924   1.085       .  S
C1921      H1931   1.111       .  S
C1921      H1932   1.110       .  S
C1921      H1933   1.110       .  S
C1923      H1934   1.110       .  S
C1923      H1935   1.108       .  S
C1923      H1936   1.110       .  S
C1937      C1938   1.401       .  A
C1937      C1942   1.403       .  A
C1937      H1947   1.084       .  S
C1938      C1939   1.411       .  A
C1938      C1943   1.479       .  S
C1939      C1940   1.402       .  A
C1939      C1944   1.507       .  S
C1940      C1941   1.402       .  A
C1940      H1945   1.084       .  S
C1941      C1942   1.415       .  A
C1942      C1946   1.507       .  S
C1943      C1948   1.410       .  A
C1943      C1952   1.398       .  A
C1944      H1960   1.110       .  S
C1944      H1961   1.109       .  S
C1944      H1962   1.111       .  S
C1946      H1957   1.110       .  S
C1946      H1958   1.111       .  S
C1946      H1959   1.107       .  S
C1948      C1949   1.408       .  A
C1948      C1953   1.505       .  S
C1949      C1950   1.406       .  A
C1949      H1954   1.084       .  S
C1950      C1951   1.418       .  A
C1951      C1952   1.398       .  A
C1951      C1955   1.508       .  S
C1952      H1956   1.085       .  S
C1953      H1963   1.111       .  S
C1953      H1964   1.110       .  S
C1953      H1965   1.109       .  S
C1955      H1966   1.111       .  S
C1955      H1967   1.107       .  S
C1955      H1968   1.110       .  S
C1969      C1970   1.402       .  A
C1969      C1974   1.403       .  A
C1969      H1979   1.085       .  S
C1970      C1971   1.412       .  A
C1970      C1975   1.482       .  S
C1971      C1972   1.400       .  A
C1971      C1976   1.508       .  S
C1972      C1973   1.404       .  A
C1972      H1977   1.084       .  S
C1973      C1974   1.418       .  A
C1974      C1978   1.508       .  S
C1975      C1980   1.412       .  A
C1975      C1984   1.403       .  A
C1976      H1992   1.109       .  S
C1976      H1993   1.110       .  S
C1976      H1994   1.111       .  S
C1978      H1989   1.111       .  S
C1978      H1990   1.110       .  S
C1978      H1991   1.105       .  S
C1980      C1981   1.398       .  A
C1980      C1985   1.509       .  S
C1981      C1982   1.404       .  A
C1981      H1986   1.084       .  S
C1982      C1983   1.418       .  A
C1983      C1984   1.405       .  A
C1983      C1987   1.508       .  S
C1984      H1988   1.084       .  S
C1985      H1995   1.111       .  S
C1985      H1996   1.109       .  S
C1985      H1997   1.111       .  S
C1987      H1998   1.110       .  S
C1987      H1999   1.106       .  S
C1987      H2000   1.111       .  S
C2001      C2002   1.401       .  A
C2001      C2006   1.403       .  A
C2001      H2011   1.085       .  S
C2002      C2003   1.409       .  A
C2002      C2007   1.479       .  S
C2003      C2004   1.401       .  A
C2003      C2008   1.506       .  S
C2004      C2005   1.405       .  A
C2004      H2009   1.084       .  S
C2005      C2006   1.418       .  A
C2006      C2010   1.508       .  S
C2007      C2012   1.407       .  A
C2007      C2016   1.399       .  A
C2008      H2024   1.110       .  S
C2008      H2025   1.110       .  S
C2008      H2026   1.111       .  S
C2010      H2021   1.110       .  S
C2010      H2022   1.111       .  S
C2010      H2023   1.107       .  S
C2012      C2013   1.401       .  A
C2012      C2017   1.507       .  S
C2013      C2014   1.409       .  A
C2013      H2018   1.083       .  S
C2014      C2015   1.424       .  A
C2015      C2016   1.406       .  A
C2015      C2019   1.508       .  S
C2016      H2020   1.084       .  S
C2017      H2027   1.111       .  S
C2017      H2028   1.110       .  S
C2017      H2029   1.110       .  S
C2019      H2030   1.110       .  S
C2019      H2031   1.110       .  S
C2019      H2032   1.111       .  S
C2033      C2034   1.399       .  A
C2033      C2038   1.401       .  A
C2033      H2043   1.084       .  S
C2034      C2035   1.410       .  A
C2034      C2039   1.473       .  S
C2035      C2036   1.400       .  A
C2035      C2040   1.507       .  S
C2036      C2037   1.403       .  A
C2036      H2041   1.085       .  S
C2037      C2038   1.416       .  A
C2038      C2042   1.507       .  S
C2039      C2044   1.408       .  A
C2039      C2048   1.398       .  A
C2040      H2056   1.110       .  S
C2040      H2057   1.110       .  S
C2040      H2058   1.111       .  S
C2042      H2053   1.110       .  S
C2042      H2054   1.110       .  S
C2042      H2055   1.105       .  S
C2044      C2045   1.405       .  A
C2044      C2049   1.505       .  S
C2045      C2046   1.405       .  A
C2045      H2050   1.084       .  S
C2046      C2047   1.415       .  A
C2047      C2048   1.396       .  A
C2047      C2051   1.508       .  S
C2048      H2052   1.085       .  S
C2049      H2059   1.111       .  S
C2049      H2060   1.110       .  S
C2049      H2061   1.110       .  S
C2051      H2062   1.111       .  S
C2051      H2063   1.107       .  S
C2051      H2064   1.110       .  S
C2065      C2066   1.400       .  A
C2065      C2070   1.402       .  A
C2065      H2075   1.084       .  S
C2066      C2067   1.411       .  A
C2066      C2071   1.477       .  S
C2067      C2068   1.402       .  A
C2067      C2072   1.507       .  S
C2068      C2069   1.404       .  A
C2068      H2073   1.085       .  S
C2069      C2070   1.416       .  A
C2070      C2074   1.508       .  S
C2071      C2076   1.410       .  A
C2071      C2080   1.400       .  A
C2072      H2088   1.110       .  S
C2072      H2089   1.110       .  S
C2072      H2090   1.111       .  S
C2074      H2085   1.111       .  S
C2074      H2086   1.110       .  S
C2074      H2087   1.107       .  S
C2076      C2077   1.405       .  A
C2076      C2081   1.505       .  S
C2077      C2078   1.404       .  A
C2077      H2082   1.084       .  S
C2078      C2079   1.415       .  A
C2079      C2080   1.399       .  A
C2079      C2083   1.508       .  S
C2080      H2084   1.085       .  S
C2081      H2091   1.111       .  S
C2081      H2092   1.110       .  S
C2081      H2093   1.110       .  S
C2083      H2094   1.110       .  S
C2083      H2095   1.109       .  S
C2083      H2096   1.110       .  S
C2097      C2098   1.400       .  A
C2097      C2102   1.400       .  A
C2097      H2107   1.084       .  S
C2098      C2099   1.411       .  A
C2098      C2103   1.477       .  S
C2099      C2100   1.402       .  A
C2099      C2104   1.507       .  S
C2100      C2101   1.402       .  A
C2100      H2105   1.084       .  S
C2101      C2102   1.415       .  A
C2102      C2106   1.509       .  S
C2103      C2108   1.408       .  A
C2103      C2112   1.397       .  A
C2104      H2120   1.109       .  S
C2104      H2121   1.110       .  S
C2104      H2122   1.111       .  S
C2106      H2117   1.110       .  S
C2106      H2118   1.110       .  S
C2106      H2119   1.107       .  S
C2108      C2109   1.403       .  A
C2108      C2113   1.507       .  S
C2109      C2110   1.409       .  A
C2109      H2114   1.083       .  S
C2110      C2111   1.424       .  A
C2111      C2112   1.401       .  A
C2111      C2115   1.509       .  S
C2112      H2116   1.084       .  S
C2113      H2123   1.111       .  S
C2113      H2124   1.110       .  S
C2113      H2125   1.110       .  S
C2115      H2126   1.111       .  S
C2115      H2127   1.110       .  S
C2115      H2128   1.108       .  S
C2129      C2130   1.402   1_455  A
C2129      C2134   1.403       .  A
C2129      H2139   1.085       .  S
C2130      C2131   1.413       .  A
C2130      C2135   1.483       .  S
C2131      C2132   1.400   1_655  A
C2131      C2136   1.508       .  S
C2132      C2133   1.403       .  A
C2132      H2137   1.085       .  S
C2133      C2134   1.417       .  A
C2134      C2138   1.507       .  S
C2135      C2140   1.412       .  A
C2135      C2144   1.402       .  A
C2136      H2152   1.109       .  S
C2136      H2153   1.110       .  S
C2136      H2154   1.111       .  S
C2138      H2149   1.111       .  S
C2138      H2150   1.110       .  S
C2138      H2151   1.105       .  S
C2140      C2141   1.399       .  A
C2140      C2145   1.509       .  S
C2141      C2142   1.406       .  A
C2141      H2146   1.085       .  S
C2142      C2143   1.418       .  A
C2143      C2144   1.405       .  A
C2143      C2147   1.507       .  S
C2144      H2148   1.084       .  S
C2145      H2155   1.111       .  S
C2145      H2156   1.109       .  S
C2145      H2157   1.111       .  S
C2147      H2158   1.110       .  S
C2147      H2159   1.105       .  S
C2147      H2160   1.111       .  S
C2161      C2162   1.402       .  A
C2161      C2166   1.402       .  A
C2161      H2171   1.085       .  S
C2162      C2163   1.409       .  A
C2162      C2167   1.479       .  S
C2163      C2164   1.402       .  A
C2163      C2168   1.506       .  S
C2164      C2165   1.404       .  A
C2164      H2169   1.084       .  S
C2165      C2166   1.414       .  A
C2166      C2170   1.507       .  S
C2167      C2172   1.409       .  A
C2167      C2176   1.400       .  A
C2168      H2184   1.110       .  S
C2168      H2185   1.110       .  S
C2168      H2186   1.111       .  S
C2170      H2181   1.111       .  S
C2170      H2182   1.110       .  S
C2170      H2183   1.108       .  S
C2172      C2173   1.402       .  A
C2172      C2177   1.507       .  S
C2173      C2174   1.406       .  A
C2173      H2178   1.084       .  S
C2174      C2175   1.419       .  A
C2175      C2176   1.404       .  A
C2175      C2179   1.509       .  S
C2176      H2180   1.084       .  S
C2177      H2187   1.111       .  S
C2177      H2188   1.110       .  S
C2177      H2189   1.110       .  S
C2179      H2190   1.111       .  S
C2179      H2191   1.105       .  S
C2179      H2192   1.110       .  S
C2193      C2194   1.401       .  A
C2193      C2198   1.408       .  A
C2193      H2203   1.085       .  S
C2194      C2195   1.409       .  A
C2194      C2199   1.478       .  S
C2195      C2196   1.397       .  A
C2195      C2200   1.509       .  S
C2196      C2197   1.406       .  A
C2196      H2201   1.085       .  S
C2197      C2198   1.422       .  A
C2198      C2202   1.508       .  S
C2199      C2204   1.410       .  A
C2199      C2208   1.401       .  A
C2200      H2216   1.110       .  S
C2200      H2217   1.109       .  S
C2200      H2218   1.111       .  S
C2202      H2213   1.110       .  S
C2202      H2214   1.111       .  S
C2202      H2215   1.104       .  S
C2204      C2205   1.404       .  A
C2204      C2209   1.506       .  S
C2205      C2206   1.403       .  A
C2205      H2210   1.084       .  S
C2206      C2207   1.413       .  A
C2207      C2208   1.400       .  A
C2207      C2211   1.507       .  S
C2208      H2212   1.085       .  S
C2209      H2219   1.111       .  S
C2209      H2220   1.110       .  S
C2209      H2221   1.110       .  S
C2211      H2222   1.110       .  S
C2211      H2223   1.109       .  S
C2211      H2224   1.110       .  S
C2225      C2226   1.400       .  A
C2225      C2230   1.398       .  A
C2225      H2235   1.085       .  S
C2226      C2227   1.410       .  A
C2226      C2231   1.476       .  S
C2227      C2228   1.403       .  A
C2227      C2232   1.506       .  S
C2228      C2229   1.404       .  A
C2228      H2233   1.085       .  S
C2229      C2230   1.415       .  A
C2230      C2234   1.508       .  S
C2231      C2236   1.409       .  A
C2231      C2240   1.401       .  A
C2232      H2248   1.109       .  S
C2232      H2249   1.110       .  S
C2232      H2250   1.111       .  S
C2234      H2245   1.110       .  S
C2234      H2246   1.110       .  S
C2234      H2247   1.109       .  S
C2236      C2237   1.404       .  A
C2236      C2241   1.506       .  S
C2237      C2238   1.405       .  A
C2237      H2242   1.084       .  S
C2238      C2239   1.416       .  A
C2239      C2240   1.399       .  A
C2239      C2243   1.509       .  S
C2240      H2244   1.085       .  S
C2241      H2251   1.111       .  S
C2241      H2252   1.110       .  S
C2241      H2253   1.110       .  S
C2243      H2254   1.111       .  S
C2243      H2255   1.106       .  S
C2243      H2256   1.110       .  S
C2257      C2258   1.400       .  A
C2257      C2262   1.400       .  A
C2257      H2267   1.084       .  S
C2258      C2259   1.409       .  A
C2258      C2263   1.472       .  S
C2259      C2260   1.400       .  A
C2259      C2264   1.507       .  S
C2260      C2261   1.401       .  A
C2260      H2265   1.084       .  S
C2261      C2262   1.413       .  A
C2262      C2266   1.507       .  S
C2263      C2268   1.407       .  A
C2263      C2272   1.398       .  A
C2264      H2280   1.110       .  S
C2264      H2281   1.110       .  S
C2264      H2282   1.111       .  S
C2266      H2277   1.110       .  S
C2266      H2278   1.110       .  S
C2266      H2279   1.108       .  S
C2268      C2269   1.400       .  A
C2268      C2273   1.507       .  S
C2269      C2270   1.407       .  A
C2269      H2274   1.083       .  S
C2270      C2271   1.421       .  A
C2271      C2272   1.402       .  A
C2271      C2275   1.509       .  S
C2272      H2276   1.085       .  S
C2273      H2283   1.111       .  S
C2273      H2284   1.110       .  S
C2273      H2285   1.110       .  S
C2275      H2286   1.110       .  S
C2275      H2287   1.111       .  S
C2275      H2288   1.111       .  S
C2289      C2290   1.400       .  A
C2289      C2294   1.402       .  A
C2289      H2299   1.084       .  S
C2290      C2291   1.409       .  A
C2290      C2295   1.475       .  S
C2291      C2292   1.400       .  A
C2291      C2296   1.507       .  S
C2292      C2293   1.404       .  A
C2292      H2297   1.084       .  S
C2293      C2294   1.417       .  A
C2294      C2298   1.508       .  S
C2295      C2300   1.409   1_565  A
C2295      C2304   1.398   1_565  A
C2296      H2312   1.110       .  S
C2296      H2313   1.109       .  S
C2296      H2314   1.111       .  S
C2298      H2309   1.110       .  S
C2298      H2310   1.111       .  S
C2298      H2311   1.106       .  S
C2300      C2301   1.405       .  A
C2300      C2305   1.506   1_545  S
C2301      C2302   1.405       .  A
C2301      H2306   1.084       .  S
C2302      C2303   1.416       .  A
C2303      C2304   1.397       .  A
C2303      C2307   1.509       .  S
C2304      H2308   1.085       .  S
C2305      H2315   1.111   1_565  S
C2305      H2316   1.110       .  S
C2305      H2317   1.110       .  S
C2307      H2318   1.110       .  S
C2307      H2319   1.108       .  S
C2307      H2320   1.110       .  S
