geometry optimzed in LAMMPS
_audit_creation_date              2020-11-30 
_audit_creation_method            'lammps2cif' 
_symmetry_space_group_name_H-M    'P1' 
_symmetry_Int_Tables_number       1 
_symmetry_cell_setting            triclinic 
loop_ 
_symmetry_equiv_pos_as_xyz 
  x,y,z 
_cell_length_a                    25.8812164 
_cell_length_b                    25.950046014551834 
_cell_length_c                    34.94707683687115 
_cell_angle_alpha                 91.65734755771946 
_cell_angle_beta                  87.62705912228334 
_cell_angle_gamma                 88.08270750110798 
loop_ 
_atom_site_label 
_atom_site_type_symbol 
_atom_site_fract_x 
_atom_site_fract_y 
_atom_site_fract_z 
_atom_site_charge 
N1          N  0.46984185  0.20144028  0.96348577    -0.01900
C2          C  0.48380779  0.15555700  0.94515526     0.00700
C3          C  0.45929707  0.14987019  0.91104165    -0.24600
C4          C  0.42100220  0.18702280  0.91204656    -0.22400
C5          C  0.42435198  0.21341484  0.94667630     0.00600
H6          H  0.45996749  0.11541786  0.89273556     0.14400
H7          H  0.38739058  0.18584305  0.89462511     0.14400
N8          N  0.43985200  0.20027570  0.50864188    -0.01900
C9          C  0.46207782  0.15843396  0.52531913     0.00700
C10         C  0.44086954  0.15248435  0.56188716    -0.22200
C11         C  0.39612203  0.18138293  0.56385040    -0.22400
C12         C  0.39366768  0.20542743  0.52916928     0.00600
H13         H  0.44840378  0.12048820  0.58035547     0.14400
H14         H  0.36452025  0.17694470  0.58466776     0.14400
N15         N  0.25581792  0.45015878  0.01322259    -0.01900
C16         C  0.24498342  0.40534128  0.03113892     0.00700
C17         C  0.27524646  0.39823613  0.06227802    -0.22200
C18         C  0.31211644  0.43418246  0.06007368    -0.22400
C19         C  0.30260715  0.46176150  0.02780217     0.00600
H20         H  0.27760491  0.36407840  0.07931397     0.14400
H21         H  0.34774761  0.43290314  0.07526631     0.14400
N22         N  0.22706040  0.47035377  0.48910492    -0.01900
C23         C  0.20811961  0.43632177  0.51467536     0.00700
C24         C  0.21541428  0.45478752  0.55140915    -0.22200
C25         C  0.24708953  0.49587209  0.54793043    -0.22400
C26         C  0.25984013  0.49974170  0.50916385     0.00600
H27         H  0.20888603  0.43415036  0.57755651     0.14400
H28         H  0.26921233  0.51090870  0.57114580     0.14400
O29         O  0.36449981  0.45114747  0.97592047    -0.76900
C30         C  0.49366535  0.46077410  0.87717279     0.84100
O31         O  0.00607888  0.34503506  0.99470254    -0.78000
O32         O  0.11255923  0.98459384  0.97793805    -0.79500
O33         O  0.46438845  0.09708080  0.99390043    -0.79300
O34         O  0.37666586  0.51094215  0.02179903    -0.77900
Zn35       Zn  0.43737366  0.44059668  0.95098533     1.55700
O36         O  0.52599407  0.07511876  0.94879987    -0.79300
Cd37       Cd  0.45158004  0.02642839  0.01882534     1.59700
Cd38       Cd  0.01351436  0.41849101  0.01797335     1.59600
O39         O  0.47820117  0.51835245  0.07187889    -0.79300
O40         O  0.48685545  0.47094514  0.98268457    -1.89800
Cd41       Cd  0.04120567  0.99444522  0.95229759     1.59900
O42         O  0.97713190  0.43126402  0.07152976    -0.79300
O43         O  0.53477809  0.96843028  0.89839600    -0.77900
C44         C  0.48381112  0.33371909  0.96466555     0.84600
C45         C  0.34849539  0.47808599  0.00556631     0.84200
O46         O  0.44999085  0.46151992  0.89592066    -0.76900
C47         C  0.49395153  0.10782828  0.96519435     0.85100
O48         O  0.45514969  0.36508141  0.94705611    -0.77000
C49         C  0.47521884  0.47579706  0.08925304     0.85200
C50         C  0.12331157  0.46234028  0.00737496     0.85500
O51         O  0.09000803  0.43568679  0.02521553    -0.79400
O52         O  0.40462580  0.36665187  0.49870813    -0.76900
C53         C  0.47961995  0.45351293  0.58763380     0.84100
O54         O  0.33670197  0.51835848  0.46978642    -0.78000
O55         O  0.50506916  0.07840693  0.51970310    -0.79500
O56         O  0.07573023  0.42964030  0.43996432    -0.79300
O57         O  0.98230948  0.34448288  0.46805150    -0.77900
Zn58       Zn  0.41428527  0.43800403  0.51757506     1.55700
O59         O  0.09367939  0.98403760  0.48888885    -0.79300
Cd60       Cd  0.99577450  0.41716753  0.44625453     1.59700
Cd61       Cd  0.42154039  0.02326641  0.45883396     1.59600
O62         O  0.96646681  0.42953177  0.39310708    -0.79300
O63         O  0.46107884  0.46935828  0.48221492    -1.89800
Cd64       Cd  0.02106448  0.99708648  0.51541739     1.59900
O65         O  0.42895536  0.50685651  0.39629496    -0.79300
O66         O  0.52281005  0.97666005  0.57111368    -0.77900
C67         C  0.31638891  0.49665493  0.49887774     0.84600
C68         C  0.44170314  0.33457037  0.49088139     0.84200
O69         O  0.43849499  0.43954289  0.57205324    -0.76900
C70         C  0.10645971  0.45679285  0.45923793     0.85100
O71         O  0.34390728  0.46893735  0.51993574    -0.77000
C72         C  0.44459441  0.46616591  0.37693578     0.85200
C73         C  0.47300783  0.10934168  0.50472344     0.85500
O74         O  0.44290939  0.09580449  0.47837129    -0.79400
N75         N  0.50826541  0.24036019  0.96446993    -0.01900
C76         C  0.49834677  0.28454481  0.94528705     0.00700
C77         C  0.02820017  0.28564985  0.91281518    -0.22200
C78         C  0.06645739  0.24908957  0.91588426    -0.22400
C79         C  0.05599256  0.22531467  0.95005601     0.00600
H80         H  0.03090037  0.31847265  0.89445172     0.14400
H81         H  0.10334381  0.24860827  0.90001305     0.14400
N82         N  0.96976518  0.24279669  0.50252194    -0.01900
C83         C  0.44524098  0.29105437  0.51597807     0.00700
C84         C  0.95317151  0.30258830  0.54992493    -0.22200
C85         C  0.99766419  0.27684613  0.55802737    -0.22400
C86         C  0.01089586  0.24665688  0.52554760     0.00600
H87         H  0.93913871  0.33745978  0.56501490     0.14400
H88         H  0.02271752  0.28815743  0.58062380     0.14400
N89         N  0.21471486  0.99028710  0.01526752    -0.01900
C90         C  0.22557352  0.03597229  0.03336304     0.00700
C91         C  0.19323207  0.04589867  0.06527364    -0.22200
C92         C  0.15558586  0.01076974  0.06369689    -0.22400
C93         C  0.16757218  0.47910744  0.02943373     0.00600
H94         H  0.19038972  0.08131350  0.08253642     0.14400
H95         H  0.11885961  0.01402029  0.07975983     0.14400
N96         N  0.19536555  0.99341987  0.46237692    -0.01900
C97         C  0.20478750  0.03699196  0.44262745     0.00700
C98         C  0.18633597  0.03070397  0.40626952    -0.22200
C99         C  0.16005342  0.98550264  0.40560346    -0.22400
C100        C  0.15875991  0.46745528  0.44264768     0.00600
H101        H  0.18319518  0.06026478  0.38516717     0.14400
H102        H  0.13251008  0.97593736  0.38422554     0.14400
O103        O  0.23414004  0.16856893  0.90617976    -0.76900
C104        C  0.24284415  0.08156484  0.01335606     0.84100
O105        O  0.11009289  0.24111696  0.00244489    -0.78000
O106        O  0.27977350  0.21914280  0.07986512    -0.79500
O107        O  0.34254598  0.25372164  0.95133131    -0.79300
O108        O  0.23907167  0.25408806  0.90231007    -0.77900
Zn109      Zn  0.20906896  0.16490708  0.96113047     1.55700
O110        O  0.36292541  0.19902621  0.99733371    -0.79300
Cd111      Cd  0.26447698  0.26893288  0.95715272     1.59700
Cd112      Cd  0.18232803  0.25185742  0.02668725     1.59600
O113        O  0.25256815  0.34340569  0.98020472    -0.79300
O114        O  0.23647582  0.21794919  0.99240540    -1.89800
Cd115      Cd  0.29024821  0.18834795  0.02424891     1.59900
O116        O  0.19914363  0.32904523  0.03045391    -0.79300
O117        O  0.27384722  0.11106307  0.03019333    -0.77900
C118        C  0.10081675  0.21307664  0.97288938     0.84600
C119        C  0.23556749  0.20926917  0.88656491     0.84200
O120        O  0.21825110  0.09535576  0.98430148    -0.76900
C121        C  0.37501402  0.22485592  0.96778384     0.85100
O122        O  0.13440098  0.18161299  0.95713120    -0.77000
C123        C  0.22871014  0.35824187  0.01150108     0.85200
C124        C  0.23712172  0.22725379  0.09933933     0.85500
O125        O  0.19359047  0.23076680  0.08312834    -0.79400
O126        O  0.08112081  0.21688305  0.48093105    -0.76900
C127        C  0.21423448  0.25198190  0.39047003     0.84100
O128        O  0.22845918  0.09948501  0.49068626    -0.78000
O129        O  0.33230566  0.25220355  0.49075578    -0.79500
O130        O  0.18115293  0.35275081  0.53036802    -0.79300
O131        O  0.09717681  0.26140877  0.53449385    -0.77900
Zn132      Zn  0.15719816  0.20326139  0.45830549     1.55700
O133        O  0.24049580  0.35661302  0.48272748    -0.79300
Cd134      Cd  0.17262002  0.27410869  0.53577398     1.59700
Cd135      Cd  0.23392934  0.16996537  0.52009295     1.59600
O136        O  0.19287152  0.25093108  0.58918952    -0.79300
O137        O  0.20547223  0.23103363  0.49386083    -1.89800
Cd138      Cd  0.25871745  0.27616827  0.46963801     1.59900
O139        O  0.21034624  0.16723894  0.57767262    -0.79300
O140        O  0.25266642  0.26521223  0.41019855    -0.77900
C141        C  0.20282038  0.08996202  0.46121463     0.84600
C142        C  0.06585006  0.24012580  0.51256361     0.84200
O143        O  0.17321043  0.23454107  0.40646747    -0.76900
C144        C  0.20903170  0.37900633  0.50783753     0.85100
O145        O  0.17405030  0.12537924  0.44736811    -0.77000
C146        C  0.20132146  0.20555630  0.60099816     0.85200
C147        C  0.34276803  0.21449426  0.51257713     0.85500
O148        O  0.30910599  0.18295698  0.52324881    -0.79400
C149        C  0.18170728  0.17498516  0.79082458    -0.00400
C150        C  0.21989826  0.19283885  0.76488077     0.08200
C151        C  0.26373679  0.21588378  0.77933305    -0.06400
C152        C  0.26951353  0.22184684  0.81891775     0.05600
C153        C  0.23134967  0.20399208  0.84469377    -0.13600
C154        C  0.18803860  0.18009308  0.83034877    -0.07000
C155        C  0.21312080  0.19145073  0.72278569     0.06500
C156        C  0.17236006  0.22094526  0.70834138    -0.08100
C157        C  0.16680993  0.22468740  0.66884592     0.01500
C158        C  0.20222025  0.19798912  0.64283264     0.01400
C159        C  0.24179391  0.16672494  0.65728634    -0.11600
C160        C  0.24793106  0.16388057  0.69688833     0.01900
C161        C  0.12428402  0.25613098  0.65588273     0.41200
C162        C  0.29096535  0.13355891  0.71019215     0.37800
C163        C  0.13547882  0.15176022  0.77766676     0.37500
C164        C  0.31541501  0.24515507  0.83250563     0.38300
N165        N  0.09014193  0.28140679  0.64568734    -0.42500
N166        N  0.32585907  0.10970060  0.72073769    -0.43000
N167        N  0.35224440  0.26357526  0.84360570    -0.40300
N168        N  0.09808766  0.13361014  0.76731833    -0.41800
H169        H  0.15855267  0.16634533  0.85012997     0.14400
H170        H  0.29298244  0.23016606  0.75962021     0.10900
H171        H  0.14558504  0.24236937  0.72806015     0.12000
H172        H  0.26940759  0.14635685  0.63759353     0.17800
C173        C  0.20328108  0.27874940  0.20034775    -0.00400
C174        C  0.23553317  0.24805726  0.22295636     0.08200
C175        C  0.27007134  0.21159007  0.20428516    -0.06400
C176        C  0.27230898  0.20501980  0.16415845     0.05600
C177        C  0.23807308  0.23394080  0.14181532    -0.13600
C178        C  0.20412499  0.27085155  0.16043329    -0.07000
C179        C  0.23103361  0.25120922  0.26594111     0.06500
C180        C  0.18221886  0.24581726  0.28416370    -0.08100
C181        C  0.17531476  0.24806625  0.32418897     0.01500
C182        C  0.21835758  0.25452475  0.34755704     0.01400
C183        C  0.26729930  0.26034096  0.32918468    -0.11600
C184        C  0.27393927  0.25865498  0.28899203     0.01900
C185        C  0.12317082  0.24423971  0.33997315     0.41200
C186        C  0.32523293  0.26476328  0.27224339     0.37800
C187        C  0.16978704  0.31956224  0.21736007     0.37500
C188        C  0.30889416  0.16707398  0.14688482     0.38300
N189        N  0.08122251  0.24129155  0.35232795    -0.42500
N190        N  0.36648836  0.26922392  0.25895231    -0.43000
N191        N  0.33843895  0.13687622  0.13305611    -0.40300
N192        N  0.14308052  0.35228088  0.23111482    -0.41800
H193        H  0.17870273  0.29437740  0.14362560     0.14400
H194        H  0.29470609  0.18734515  0.22114928     0.10900
H195        H  0.14901300  0.23947565  0.26689187     0.12000
H196        H  0.30094995  0.26525484  0.34622321     0.17800
C197        C  0.53291893  0.98520857  0.77741748    -0.00400
C198        C  0.49465325  0.44707763  0.75324978     0.08200
C199        C  0.45943190  0.41958485  0.77572822    -0.06400
C200        C  0.45874544  0.42318375  0.81585842     0.05600
C201        C  0.49481699  0.45382139  0.83461983    -0.13600
C202        C  0.53147709  0.98643954  0.81759676    -0.07000
C203        C  0.49013481  0.44661567  0.71059720     0.06500
C204        C  0.02835966  0.42353539  0.68694111    -0.08100
C205        C  0.02638512  0.42450736  0.64681629     0.01500
C206        C  0.48392140  0.44855681  0.62966246     0.01400
C207        C  0.44030160  0.46106150  0.65379519    -0.11600
C208        C  0.44318838  0.46100626  0.69377433     0.01900
C209        C  0.07218806  0.40918788  0.62373416     0.41200
C210        C  0.39798197  0.47821173  0.71687865     0.37800
C211        C  0.07127305  0.99841404  0.75403030     0.37500
C212        C  0.42068065  0.39472297  0.83704609     0.38300
N213        N  0.10867779  0.39677407  0.60503202    -0.42500
N214        N  0.36186917  0.49187691  0.73555277    -0.43000
N215        N  0.39004982  0.37239137  0.85428208    -0.40300
N216        N  0.10272383  0.01976849  0.73685548    -0.41800
H217        H  0.05942942  0.99796432  0.82945514     0.14400
H218        H  0.43153232  0.39593297  0.76179739     0.10900
H219        H  0.06425370  0.41209409  0.69977091     0.12000
H220        H  0.40421260  0.47290058  0.64138240     0.17800
C221        C  0.42162920  0.43863810  0.18628460    -0.00400
C222        C  0.44609495  0.47285195  0.21119671     0.08200
C223        C  0.98212755  0.51044091  0.19541113    -0.06400
C224        C  0.99094543  0.51142684  0.15564776     0.05600
C225        C  0.46592504  0.47614773  0.13128272    -0.13600
C226        C  0.43206006  0.44021511  0.14675284    -0.07000
C227        C  0.44008996  0.46949841  0.25342744     0.06500
C228        C  0.46028339  0.42566723  0.27069534    -0.08100
C229        C  0.46103038  0.42284330  0.31058484     0.01500
C230        C  0.44074965  0.46482319  0.33434048     0.01400
C231        C  0.41395233  0.99585245  0.32118887    -0.11600
C232        C  0.41346342  0.99745008  0.28116389     0.01900
C233        C  0.48471690  0.37693420  0.32568071     0.41200
C234        C  0.37039341  0.02341605  0.26398995     0.37800
C235        C  0.38461971  0.40261434  0.20047718     0.37500
C236        C  0.95602428  0.06488282  0.14341396     0.38300
N237        N  0.50393245  0.34018660  0.33763664    -0.42500
N238        N  0.33579908  0.04415208  0.25026632    -0.43000
N239        N  0.95673317  0.10610869  0.13166973    -0.40300
N240        N  0.35455002  0.37395826  0.21155982    -0.41800
H241        H  0.41305788  0.41368754  0.12782042     0.14400
H242        H  0.94375109  0.04442530  0.21608260     0.10900
H243        H  0.47725552  0.39411892  0.25277941     0.12000
H244        H  0.38268023  0.01491377  0.33839160     0.17800
N245        N  0.47043471  0.70088423  0.96226680    -0.01900
C246        C  0.48416234  0.65562821  0.94286655     0.00700
C247        C  0.45836612  0.65080982  0.90925463    -0.24600
C248        C  0.41984672  0.68775305  0.91164944    -0.22400
C249        C  0.42439476  0.71339293  0.94646637     0.00600
H250        H  0.45853478  0.61687762  0.89043927     0.14400
H251        H  0.38554353  0.68683071  0.89496682     0.14400
N252        N  0.44184477  0.69857926  0.50700067    -0.01900
C253        C  0.46355839  0.65520271  0.52208468     0.00700
C254        C  0.44383475  0.64823521  0.55895737    -0.22200
C255        C  0.39941699  0.67747319  0.56229815    -0.22400
C256        C  0.39605636  0.70269982  0.52814007     0.00600
H257        H  0.45157726  0.61539893  0.57658049     0.14400
H258        H  0.36842133  0.67246755  0.58351032     0.14400
N259        N  0.25383317  0.94946799  0.01442921    -0.01900
C260        C  0.24183787  0.90486871  0.03236144     0.00700
C261        C  0.27108884  0.89777016  0.06406148    -0.22200
C262        C  0.30883014  0.93281526  0.06198932    -0.22400
C263        C  0.30043993  0.96023711  0.02949852     0.00600
H264        H  0.27251217  0.86377578  0.08132256     0.14400
H265        H  0.34407391  0.93112925  0.07764906     0.14400
N266        N  0.23001339  0.96986180  0.48799093    -0.01900
C267        C  0.21088816  0.93594378  0.51359265     0.00700
C268        C  0.21629339  0.95527602  0.55033345    -0.22200
C269        C  0.24733066  0.99682969  0.54708638    -0.22400
C270        C  0.26166465  0.99994319  0.50851709     0.00600
H271        H  0.20895110  0.93512509  0.57659466     0.14400
H272        H  0.26820747  0.01274904  0.57066051     0.14400
O273        O  0.36314108  0.95023040  0.97830109    -0.76900
C274        C  0.49244951  0.96386231  0.88109386     0.84100
O275        O  0.00916856  0.84445372  0.99501815    -0.78000
O276        O  0.11416661  0.48311324  0.97541361    -0.79500
O277        O  0.46785326  0.59680798  0.99174552    -0.79300
O278        O  0.37402473  0.01011213  0.02432912    -0.77900
Zn279      Zn  0.43617936  0.94067100  0.95400778     1.55700
O280        O  0.52600316  0.57438931  0.94426521    -0.79300
Cd281      Cd  0.45460231  0.52616119  0.01613233     1.59700
Cd282      Cd  0.01416657  0.91734901  0.01968441     1.59600
O283        O  0.47468221  0.01948084  0.07457120    -0.79300
O284        O  0.48511325  0.97109598  0.98619285    -1.89800
Cd285      Cd  0.04251615  0.49413737  0.94943660     1.59900
O286        O  0.97744493  0.92699315  0.07311705    -0.79300
O287        O  0.53619350  0.46591792  0.89424371    -0.77900
C288        C  0.48321313  0.83362550  0.96662933     0.84600
C289        C  0.34651150  0.97693653  0.00785486     0.84200
O290        O  0.44863486  0.96324338  0.89950943    -0.76900
C291        C  0.49538906  0.60737685  0.96196917     0.85100
O292        O  0.45464051  0.86537945  0.94930557    -0.77000
C293        C  0.47414254  0.97732629  0.09259954     0.85200
C294        C  0.12232203  0.96367411  0.00966661     0.85500
O295        O  0.08979056  0.93631006  0.02757387    -0.79400
O296        O  0.41649182  0.87072930  0.51660774    -0.76900
C297        C  0.48403740  0.96471747  0.59224640     0.84100
O298        O  0.33999318  0.01906002  0.47109791    -0.78000
O299        O  0.50413521  0.57451648  0.51498899    -0.79500
O300        O  0.07863096  0.92673956  0.44234377    -0.79300
O301        O  0.98393358  0.84491931  0.47395378    -0.77900
Zn302      Zn  0.41791468  0.94525649  0.52419029     1.55700
O303        O  0.09079660  0.48191485  0.48962776    -0.79300
Cd304      Cd  0.99863595  0.91539376  0.45024922     1.59700
Cd305      Cd  0.41788422  0.52169967  0.45520247     1.59600
O306        O  0.96935754  0.92350165  0.39701620    -0.79300
O307        O  0.46440603  0.97176385  0.48665549    -1.89800
Cd308      Cd  0.01714096  0.49560304  0.51430490     1.59900
O309        O  0.43635393  0.00924758  0.40060384    -0.79300
O310        O  0.51613905  0.47338235  0.56813365    -0.77900
C311        C  0.31861823  0.99729774  0.49973102     0.84600
C312        C  0.44671934  0.83633176  0.50070351     0.84200
O313        O  0.44044825  0.95652527  0.57808369    -0.76900
C314        C  0.10918947  0.95631983  0.45967283     0.85100
O315        O  0.34560129  0.97080605  0.52197889    -0.77000
C316        C  0.45343410  0.96893509  0.38155063     0.85200
C317        C  0.47256567  0.60645334  0.50054675     0.85500
O318        O  0.44125284  0.59399331  0.47465350    -0.79400
N319        N  0.50877030  0.73984525  0.96378669    -0.01900
C320        C  0.49834097  0.78514127  0.94610711     0.00700
C321        C  0.03160027  0.78755034  0.91341592    -0.22200
C322        C  0.06977788  0.75076750  0.91589437    -0.22400
C323        C  0.05858243  0.72521927  0.94918387     0.00600
H324        H  0.03462139  0.82132883  0.89604984     0.14400
H325        H  0.10698392  0.75107921  0.90051213     0.14400
N326        N  0.97234049  0.74380063  0.50637968    -0.01900
C327        C  0.44954951  0.78809666  0.52104342     0.00700
C328        C  0.95737098  0.80090923  0.55599512    -0.22200
C329        C  0.00140679  0.77354626  0.56285640    -0.22400
C330        C  0.01371721  0.74513678  0.52935744     0.00600
H331        H  0.94490388  0.83578567  0.57198307     0.14400
H332        H  0.02716963  0.78314035  0.58541188     0.14400
N333        N  0.21573251  0.49004083  0.01450889    -0.01900
C334        C  0.22555063  0.53528096  0.03358205     0.00700
C335        C  0.19216587  0.54408340  0.06502745    -0.22200
C336        C  0.15530043  0.50823394  0.06242484    -0.22400
C337        C  0.16675960  0.98070423  0.03102764     0.00600
H338        H  0.18836320  0.57904175  0.08277338     0.14400
H339        H  0.11826562  0.51038920  0.07806473     0.14400
N340        N  0.19255706  0.49438486  0.46364944    -0.01900
C341        C  0.20279910  0.53798802  0.44420228     0.00700
C342        C  0.18492598  0.53241502  0.40763293    -0.22200
C343        C  0.15855796  0.48733184  0.40628912    -0.22400
C344        C  0.16109430  0.96618624  0.44210494     0.00600
H345        H  0.18254329  0.56223868  0.38667633     0.14400
H346        H  0.13159229  0.47806760  0.38442705     0.14400
O347        O  0.23892804  0.66696745  0.90766609    -0.76900
C348        C  0.24346240  0.58118817  0.01444014     0.84100
O349        O  0.11115737  0.73853672  0.00271381    -0.78000
O350        O  0.27973909  0.71817693  0.08162112    -0.79500
O351        O  0.34294457  0.75409947  0.95258267    -0.79300
O352        O  0.23927725  0.75273446  0.90402478    -0.77900
Zn353      Zn  0.21145844  0.66427502  0.96187492     1.55700
O354        O  0.36408675  0.69869712  0.99802525    -0.79300
Cd355      Cd  0.26481989  0.76845559  0.95860725     1.59700
Cd356      Cd  0.18281702  0.74967542  0.02750952     1.59600
O357        O  0.25116083  0.84301017  0.98127360    -0.79300
O358        O  0.23790332  0.71698329  0.99373335    -1.89800
Cd359      Cd  0.29157496  0.68759564  0.02577195     1.59900
O360        O  0.19820861  0.82722638  0.03147288    -0.79300
O361        O  0.27468632  0.61017010  0.03158876    -0.77900
C362        C  0.10291352  0.71197635  0.97224792     0.84600
C363        C  0.23808877  0.70775599  0.88817188     0.84200
O364        O  0.21937732  0.59539144  0.98531426    -0.76900
C365        C  0.37566711  0.72488410  0.96848219     0.85100
O366        O  0.13715520  0.68149396  0.95617466    -0.77000
C367        C  0.22689213  0.85729696  0.01254025     0.85200
C368        C  0.23644092  0.72498837  0.10058603     0.85500
O369        O  0.19336774  0.72761334  0.08371314    -0.79400
O370        O  0.08296084  0.71684124  0.48368374    -0.76900
C371        C  0.21392885  0.75067343  0.39175304     0.84100
O372        O  0.22775891  0.59952163  0.49262586    -0.78000
O373        O  0.33450246  0.75015529  0.49043043    -0.79500
O374        O  0.18429705  0.85280119  0.53031668    -0.79300
O375        O  0.10005012  0.76169246  0.53680251    -0.77900
Zn376      Zn  0.15835915  0.70404719  0.46052289     1.55700
O377        O  0.24326898  0.85565710  0.48227551    -0.79300
Cd378      Cd  0.17553033  0.77462089  0.53714062     1.59700
Cd379      Cd  0.23513777  0.66994792  0.52195149     1.59600
O380        O  0.19605727  0.75239657  0.59077488    -0.79300
O381        O  0.20755706  0.73098569  0.49540592    -1.89800
Cd382      Cd  0.26087024  0.77485012  0.46987461     1.59900
O383        O  0.21176814  0.66833588  0.57973178    -0.79300
O384        O  0.25365815  0.76269087  0.41050377    -0.77900
C385        C  0.20208194  0.59069655  0.46302306     0.84600
C386        C  0.06834264  0.73988949  0.51546579     0.84200
O387        O  0.17276174  0.73555320  0.40891564    -0.76900
C388        C  0.21199901  0.87854052  0.50731163     0.85100
O389        O  0.17421793  0.62668366  0.44913912    -0.77000
C390        C  0.20355500  0.70701488  0.60286716     0.85200
C391        C  0.34473067  0.71275797  0.51258604     0.85500
O392        O  0.31065519  0.68216116  0.52419371    -0.79400
C393        C  0.18412208  0.67450417  0.79240592    -0.00400
C394        C  0.22174709  0.69375839  0.76669162     0.08200
C395        C  0.26545316  0.71684803  0.78124641    -0.06400
C396        C  0.27161042  0.72158316  0.82080972     0.05600
C397        C  0.23392630  0.70254296  0.84638988    -0.13600
C398        C  0.19079811  0.67844520  0.83193260    -0.07000
C399        C  0.21498625  0.69292675  0.72467757     0.06500
C400        C  0.17491582  0.72335622  0.71027978    -0.08100
C401        C  0.16947831  0.72721617  0.67077656     0.01500
C402        C  0.20437435  0.69977005  0.64476390     0.01400
C403        C  0.24324448  0.66763713  0.65926210    -0.11600
C404        C  0.24917741  0.66456748  0.69886293     0.01900
C405        C  0.12737010  0.75925206  0.65788327     0.41200
C406        C  0.29114354  0.63290794  0.71238395     0.37800
C407        C  0.13816859  0.65110428  0.77894848     0.37500
C408        C  0.31739013  0.74492154  0.83457460     0.38300
N409        N  0.09338676  0.78495904  0.64795621    -0.42500
N410        N  0.32497985  0.60788663  0.72332340    -0.43000
N411        N  0.35414011  0.76334846  0.84580070    -0.40300
N412        N  0.10104228  0.63281312  0.76825331    -0.41800
H413        H  0.16167656  0.66383025  0.85161470     0.14400
H414        H  0.29435337  0.73194626  0.76163797     0.10900
H415        H  0.14852334  0.74519489  0.73003539     0.12000
H416        H  0.27038591  0.64657479  0.63961005     0.17800
C417        C  0.19464296  0.77187182  0.20150497    -0.00400
C418        C  0.23052788  0.74614987  0.22428068     0.08200
C419        C  0.26930885  0.71381133  0.20610905    -0.06400
C420        C  0.27236608  0.70643212  0.16603618     0.05600
C421        C  0.23575058  0.73148450  0.14321298    -0.13600
C422        C  0.19728983  0.76415633  0.16155589    -0.07000
C423        C  0.22617422  0.75002994  0.26709452     0.06500
C424        C  0.18167550  0.73227918  0.28592569    -0.08100
C425        C  0.17605883  0.73345394  0.32602373     0.01500
C426        C  0.21616181  0.75233627  0.34872484     0.01400
C427        C  0.26048153  0.77095307  0.32952857    -0.11600
C428        C  0.26556588  0.77012007  0.28926518     0.01900
C429        C  0.12870814  0.71407753  0.34251675     0.41200
C430        C  0.31090572  0.79136122  0.27122614     0.37800
C431        C  0.15539683  0.80733268  0.21846505     0.37500
C432        C  0.31205165  0.67116979  0.14943510     0.38300
N433        N  0.09068896  0.69859303  0.35563910    -0.42500
N434        N  0.34700422  0.80864687  0.25657704    -0.43000
N435        N  0.34387236  0.64282275  0.13626011    -0.40300
N436        N  0.12408308  0.83586018  0.23210238    -0.41800
H437        H  0.16942810  0.78437113  0.14455522     0.14400
H438        H  0.29666817  0.69338855  0.22340252     0.10900
H439        H  0.15119947  0.71677433  0.26906370     0.12000
H440        H  0.29152406  0.78611930  0.34592636     0.17800
C441        C  0.53194367  0.47620866  0.77192985    -0.00400
C442        C  0.49669733  0.95632773  0.75748655     0.08200
C443        C  0.46141438  0.92707611  0.77848709    -0.06400
C444        C  0.45975617  0.92850895  0.81859166     0.05600
C445        C  0.49430279  0.95936910  0.83861852    -0.13600
C446        C  0.53208226  0.47888458  0.81216434    -0.07000
C447        C  0.49336526  0.95772823  0.71501356     0.06500
C448        C  0.03386187  0.92541196  0.68975207    -0.08100
C449        C  0.03213670  0.92773348  0.64967879     0.01500
C450        C  0.48863868  0.96133823  0.63428671     0.01400
C451        C  0.44519845  0.97545189  0.65817795    -0.11600
C452        C  0.44717165  0.97386818  0.69804882     0.01900
C453        C  0.07673747  0.90937365  0.62643227     0.41200
C454        C  0.40130204  0.98959693  0.72093574     0.37800
C455        C  0.05981033  0.50389216  0.74836222     0.37500
C456        C  0.42315265  0.89683815  0.83841951     0.38300
N457        N  0.11233460  0.89440372  0.60771468    -0.42500
N458        N  0.36448712  0.00150289  0.73943006    -0.43000
N459        N  0.39394677  0.87155357  0.85453369    -0.40300
N460        N  0.08779709  0.52751731  0.72971469    -0.41800
H461        H  0.05223513  0.50420395  0.82428044     0.14400
H462        H  0.43456676  0.90343831  0.76341049     0.10900
H463        H  0.06875239  0.91074350  0.70241410     0.12000
H464        H  0.40958371  0.98854443  0.64567159     0.17800
C465        C  0.45825649  0.92824151  0.19329477    -0.00400
C466        C  0.45609431  0.97400737  0.21606814     0.08200
C467        C  0.94766358  0.00961606  0.19809098    -0.06400
C468        C  0.95516159  0.01364466  0.15838778     0.05600
C469        C  0.46765567  0.97812184  0.13523408    -0.13600
C470        C  0.46377961  0.93063025  0.15347733    -0.07000
C471        C  0.45395356  0.97273272  0.25853779     0.06500
C472        C  0.49412461  0.94671425  0.27654173    -0.08100
C473        C  0.49424535  0.94423245  0.31639028     0.01500
C474        C  0.45381881  0.96908995  0.33921519     0.01400
C475        C  0.41855851  0.50788765  0.31662149    -0.11600
C476        C  0.41832921  0.51056577  0.27662935     0.01900
C477        C  0.53745686  0.91749237  0.33288100     0.41200
C478        C  0.39583770  0.55591067  0.25992611     0.37800
C479        C  0.45507804  0.87818236  0.21008890     0.37500
C480        C  0.02753696  0.54723046  0.14052391     0.38300
N481        N  0.57207342  0.89588491  0.34591972    -0.42500
N482        N  0.37788151  0.59218255  0.24641471    -0.43000
N483        N  0.05670548  0.57613472  0.12848659    -0.40300
N484        N  0.45312465  0.83802234  0.22351410    -0.41800
H485        H  0.46528521  0.89478913  0.13667289     0.14400
H486        H  0.00329523  0.53589232  0.21376236     0.10900
H487        H  0.52583851  0.92848522  0.25927507     0.12000
H488        H  0.40227867  0.54026943  0.33394001     0.17800
N489        N  0.96919448  0.19921517  0.96422830    -0.01900
C490        C  0.98280135  0.15328417  0.94567194     0.00700
C491        C  0.95666798  0.14723225  0.91228772    -0.24600
C492        C  0.91809411  0.18406816  0.91413092    -0.22400
C493        C  0.92307424  0.21108983  0.94828202     0.00600
H494        H  0.95676349  0.11270316  0.89409737     0.14400
H495        H  0.88364892  0.18256456  0.89763878     0.14400
N496        N  0.94002587  0.19722155  0.50673198    -0.01900
C497        C  0.96324617  0.15571891  0.52330394     0.00700
C498        C  0.94351588  0.15039538  0.56039759    -0.22200
C499        C  0.89841438  0.17866940  0.56294084    -0.22400
C500        C  0.89451679  0.20218210  0.52818165     0.00600
H501        H  0.95212375  0.11893836  0.57911208     0.14400
H502        H  0.86768830  0.17446610  0.58450504     0.14400
N503        N  0.75508933  0.45192155  0.01475227    -0.01900
C504        C  0.74331302  0.40772494  0.03324900     0.00700
C505        C  0.77273862  0.40142981  0.06494765    -0.22200
C506        C  0.81031114  0.43666475  0.06234703    -0.22400
C507        C  0.80183243  0.46317376  0.02941407     0.00600
H508        H  0.77438315  0.36781253  0.08259179     0.14400
H509        H  0.84569142  0.43531873  0.07783312     0.14400
N510        N  0.72714561  0.46874257  0.48796200    -0.01900
C511        C  0.70791678  0.43513427  0.51375156     0.00700
C512        C  0.71486759  0.45423657  0.55037984    -0.22200
C513        C  0.74642695  0.49533634  0.54673681    -0.22400
C514        C  0.75959438  0.49854597  0.50801764     0.00600
H515        H  0.70861913  0.43386511  0.57665896     0.14400
H516        H  0.76839162  0.51065706  0.56994169     0.14400
O517        O  0.86354675  0.45019954  0.97757964    -0.76900
C518        C  0.99020478  0.45980997  0.87717415     0.84100
O519        O  0.50756362  0.34699740  0.99444790    -0.78000
O520        O  0.61298492  0.98662078  0.97902290    -0.79500
O521        O  0.96828933  0.09524224  0.99578694    -0.79300
O522        O  0.87680922  0.51076838  0.02265027    -0.77900
Zn523      Zn  0.93583648  0.43903591  0.95164732     1.55700
O524        O  0.02413048  0.07193987  0.94708764    -0.79300
Cd525      Cd  0.95391221  0.02364607  0.01917125     1.59700
Cd526      Cd  0.51472533  0.42039828  0.01753062     1.59600
O527        O  0.97861740  0.51705568  0.07168190    -0.79300
O528        O  0.98616056  0.46901493  0.98281948    -1.89800
Cd529      Cd  0.54159573  0.99756482  0.95380951     1.59900
O530        O  0.47863978  0.43242959  0.07094502    -0.79300
O531        O  0.03430472  0.96321097  0.89717448    -0.77900
C532        C  0.98233972  0.33183562  0.96487330     0.84600
C533        C  0.84812302  0.47793302  0.00698775     0.84200
O534        O  0.94699026  0.46051623  0.89652933    -0.76900
C535        C  0.99465365  0.10541737  0.96531700     0.85100
O536        O  0.95365354  0.36332387  0.94734125    -0.77000
C537        C  0.97460094  0.47494854  0.08946725     0.85200
C538        C  0.62356296  0.46556413  0.00779729     0.85500
O539        O  0.59085975  0.43779133  0.02514376    -0.79400
O540        O  0.90417245  0.36398638  0.49411346    -0.76900
C541        C  0.97685451  0.44659565  0.58782452     0.84100
O542        O  0.83741859  0.51878685  0.47063787    -0.78000
O543        O  0.00433756  0.07456838  0.51886125    -0.79500
O544        O  0.57560944  0.42802946  0.43874495    -0.79300
O545        O  0.48101501  0.34578465  0.46979594    -0.77900
Zn546      Zn  0.91333812  0.43414039  0.51626598     1.55700
O547        O  0.59357268  0.98756988  0.48848899    -0.79300
Cd548      Cd  0.49510538  0.41690667  0.44603272     1.59700
Cd549      Cd  0.92131627  0.01949008  0.45761481     1.59600
O550        O  0.46468486  0.42714958  0.39299107    -0.79300
O551        O  0.96094659  0.46832465  0.48316868    -1.89800
Cd552      Cd  0.52173884  0.00117506  0.51525801     1.59900
O553        O  0.92973858  0.50882185  0.39789546    -0.79300
O554        O  0.02008048  0.97158276  0.57153519    -0.77900
C555        C  0.81620318  0.49495500  0.49832626     0.84600
C556        C  0.94182807  0.33223964  0.48742134     0.84200
O557        O  0.93662635  0.43255633  0.57102304    -0.76900
C558        C  0.60676273  0.45560287  0.45735042     0.85100
O559        O  0.84283572  0.46513748  0.51851947    -0.77000
C560        C  0.94570872  0.46887522  0.37786293     0.85200
C561        C  0.97320817  0.10589380  0.50320775     0.85500
O562        O  0.94336041  0.09242406  0.47660846    -0.79400
N563        N  0.00736786  0.23840582  0.96462015    -0.01900
C564        C  0.99671882  0.28250689  0.94546270     0.00700
C565        C  0.53071850  0.28782940  0.91313569    -0.22200
C566        C  0.56868601  0.25112537  0.91662387    -0.22400
C567        C  0.55719479  0.22713883  0.95054493     0.00600
H568        H  0.53407075  0.32079246  0.89496693     0.14400
H569        H  0.60598187  0.25068560  0.90132247     0.14400
N570        N  0.47024657  0.24546408  0.50544514    -0.01900
C571        C  0.94406011  0.28831010  0.51241120     0.00700
C572        C  0.45568693  0.30530967  0.55324880    -0.22200
C573        C  0.49957409  0.27826471  0.56093437    -0.22400
C574        C  0.51163166  0.24789602  0.52832803     0.00600
H575        H  0.44306504  0.34076253  0.56831989     0.14400
H576        H  0.52528082  0.28876416  0.58332736     0.14400
N577        N  0.71484424  0.99166038  0.01577205    -0.01900
C578        C  0.72518936  0.03692619  0.03462659     0.00700
C579        C  0.69329091  0.04530539  0.06693550    -0.22200
C580        C  0.65648013  0.00929064  0.06517229    -0.22400
C581        C  0.66735566  0.48253626  0.03002037     0.00600
H582        H  0.69013276  0.08013266  0.08485199     0.14400
H583        H  0.62002540  0.01137823  0.08162582     0.14400
N584        N  0.69594633  0.99263571  0.46379761    -0.01900
C585        C  0.70529491  0.03639745  0.44437996     0.00700
C586        C  0.68714160  0.03034133  0.40791407    -0.22200
C587        C  0.66098745  0.98504986  0.40694205    -0.22400
C588        C  0.65946297  0.46493057  0.44085284     0.00600
H589        H  0.68398467  0.06009735  0.38696395     0.14400
H590        H  0.63351195  0.97571486  0.38546375     0.14400
O591        O  0.73624801  0.16999323  0.90841167    -0.76900
C592        C  0.74230541  0.08309108  0.01537573     0.84100
O593        O  0.60998895  0.24231151  0.00382624    -0.78000
O594        O  0.77861253  0.21957924  0.08243404    -0.79500
O595        O  0.84272476  0.25421220  0.95372799    -0.79300
O596        O  0.73918841  0.25567191  0.90480443    -0.77900
Zn597      Zn  0.70983325  0.16664353  0.96307622     1.55700
O598        O  0.86249389  0.19938694  0.99984540    -0.79300
Cd599      Cd  0.76478114  0.27048320  0.95964683     1.59700
Cd600      Cd  0.68186903  0.25320071  0.02863701     1.59600
O601        O  0.75256254  0.34500891  0.98278101    -0.79300
O602        O  0.73650560  0.21953163  0.99474050    -1.89800
Cd603      Cd  0.78977237  0.18952007  0.02678301     1.59900
O604        O  0.69854247  0.33056916  0.03268717    -0.79300
O605        O  0.77315006  0.11234222  0.03257598    -0.77900
C606        C  0.60142800  0.21466493  0.97391636     0.84600
C607        C  0.73650224  0.21083325  0.88893331     0.84200
O608        O  0.71809631  0.09722562  0.98626246    -0.76900
C609        C  0.87473170  0.22464474  0.97004831     0.85100
O610        O  0.63544021  0.18357299  0.95826895    -0.77000
C611        C  0.72812114  0.35992980  0.01384567     0.85200
C612        C  0.73555847  0.22734774  0.10144655     0.85500
O613        O  0.69232717  0.23123770  0.08489718    -0.79400
O614        O  0.58077807  0.21629764  0.48339060    -0.76900
C615        C  0.71263441  0.24952613  0.39182300     0.84100
O616        O  0.72802021  0.09850237  0.49303818    -0.78000
O617        O  0.83241335  0.24930824  0.49059223    -0.79500
O618        O  0.68156765  0.35186180  0.53057803    -0.79300
O619        O  0.59824113  0.26110607  0.53650101    -0.77900
Zn620      Zn  0.65652600  0.20199125  0.46034531     1.55700
O621        O  0.74070844  0.35481831  0.48275157    -0.79300
Cd622      Cd  0.67358410  0.27349427  0.53714019     1.59700
Cd623      Cd  0.73354024  0.16905599  0.52250923     1.59600
O624        O  0.69425950  0.25156273  0.59073255    -0.79300
O625        O  0.70544701  0.22963331  0.49547104    -1.89800
Cd626      Cd  0.75852369  0.27403031  0.47043574     1.59900
O627        O  0.70969416  0.16742255  0.58033503    -0.79300
O628        O  0.75142049  0.26238849  0.41127511    -0.77900
C629        C  0.70266756  0.08907570  0.46337277     0.84600
C630        C  0.56629373  0.24008744  0.51498177     0.84200
O631        O  0.67154473  0.23270280  0.40812770    -0.76900
C632        C  0.70920377  0.37768591  0.50761277     0.85100
O633        O  0.67368790  0.12434383  0.44958176    -0.77000
C634        C  0.70134061  0.20635487  0.60323849     0.85200
C635        C  0.84292769  0.21216877  0.51292400     0.85500
O636        O  0.80896332  0.18173639  0.52493149    -0.79400
C637        C  0.67748173  0.18280773  0.79405246    -0.00400
C638        C  0.71736751  0.19573285  0.76763561     0.08200
C639        C  0.76393766  0.21363992  0.78146412    -0.06400
C640        C  0.77086781  0.21932107  0.82092489     0.05600
C641        C  0.73125559  0.20575540  0.84718663    -0.13600
C642        C  0.68509243  0.18696960  0.83346661    -0.07000
C643        C  0.71031946  0.19406751  0.72558247     0.06500
C644        C  0.67387266  0.22815039  0.71048561    -0.08100
C645        C  0.66883016  0.23114286  0.67087957     0.01500
C646        C  0.70106822  0.19978239  0.64535367     0.01400
C647        C  0.73595025  0.16392796  0.66059768    -0.11600
C648        C  0.74089003  0.16104206  0.70035001     0.01900
C649        C  0.62957944  0.26620756  0.65736830     0.41200
C650        C  0.77759247  0.12407097  0.71470982     0.37800
C651        C  0.62813794  0.16614789  0.78146387     0.37500
C652        C  0.81897167  0.23871371  0.83380062     0.38300
N653        N  0.59792468  0.29419751  0.64670072    -0.42500
N654        N  0.80692967  0.09451640  0.72644444    -0.43000
N655        N  0.85755252  0.25434917  0.84404293    -0.40300
N656        N  0.58828896  0.15351357  0.77146958    -0.41800
H657        H  0.65440654  0.17679032  0.85364435     0.14400
H658        H  0.79445645  0.22431955  0.76133697     0.10900
H659        H  0.64992650  0.25329953  0.72976188     0.12000
H660        H  0.76065118  0.13935856  0.64143841     0.17800
C661        C  0.70572050  0.28211999  0.20185701    -0.00400
C662        C  0.73364091  0.24779806  0.22467150     0.08200
C663        C  0.76356490  0.20726795  0.20648229    -0.06400
C664        C  0.76538516  0.20023019  0.16643957     0.05600
C665        C  0.73579566  0.23343112  0.14381589    -0.13600
C666        C  0.70636746  0.27424648  0.16196022    -0.07000
C667        C  0.72890572  0.25123131  0.26746751     0.06500
C668        C  0.67993982  0.24648316  0.28549649    -0.08100
C669        C  0.67329789  0.24653340  0.32553763     0.01500
C670        C  0.71647600  0.25227516  0.34893122     0.01400
C671        C  0.76547952  0.25795297  0.33059468    -0.11600
C672        C  0.77205652  0.25679626  0.29045099     0.01900
C673        C  0.62158724  0.23965082  0.34123836     0.41200
C674        C  0.82359643  0.26081754  0.27357900     0.37800
C675        C  0.67732491  0.32660991  0.21862399     0.37500
C676        C  0.79612714  0.15732976  0.14950531     0.38300
N677        N  0.58003141  0.23364574  0.35342628    -0.42500
N678        N  0.86501234  0.26349536  0.26014084    -0.43000
N679        N  0.82082333  0.12292388  0.13604286    -0.40300
N680        N  0.65485823  0.36251081  0.23195391    -0.41800
H681        H  0.68454581  0.30072474  0.14479852     0.14400
H682        H  0.78471560  0.18034025  0.22369964     0.10900
H683        H  0.64668096  0.24138922  0.26803593     0.12000
H684        H  0.79929877  0.26188009  0.34760130     0.17800
C685        C  0.03237521  0.97105806  0.77523119    -0.00400
C686        C  0.98922781  0.44138715  0.75341484     0.08200
C687        C  0.95562969  0.41343469  0.77689676    -0.06400
C688        C  0.95546024  0.41888656  0.81697453     0.05600
C689        C  0.99014904  0.45225744  0.83466130    -0.13600
C690        C  0.03136311  0.97464135  0.81541497    -0.07000
C691        C  0.98481807  0.43818418  0.71075038     0.06500
C692        C  0.53334719  0.43241129  0.68636031    -0.08100
C693        C  0.53083444  0.43410833  0.64633191     0.01500
C694        C  0.97991927  0.43945424  0.62972589     0.01400
C695        C  0.93573696  0.45131368  0.65342701    -0.11600
C696        C  0.93790912  0.45131981  0.69345669     0.01900
C697        C  0.57660137  0.41986977  0.62293777     0.41200
C698        C  0.89204764  0.46755859  0.71614057     0.37800
C699        C  0.57109349  0.01491097  0.75739666     0.37500
C700        C  0.91990465  0.38890995  0.83930924     0.38300
N701        N  0.61310419  0.40848754  0.60395584    -0.42500
N702        N  0.85536976  0.48035112  0.73448993    -0.43000
N703        N  0.89143121  0.36523171  0.85749646    -0.40300
N704        N  0.60203181  0.03821812  0.74127343    -0.41800
H705        H  0.55868801  0.00972671  0.83259579     0.14400
H706        H  0.92886753  0.38765371  0.76379500     0.10900
H707        H  0.56934018  0.42031509  0.69876189     0.12000
H708        H  0.89984531  0.46297723  0.64065613     0.17800
C709        C  0.92082333  0.44247765  0.18769876    -0.00400
C710        C  0.94725277  0.47625261  0.21189415     0.08200
C711        C  0.47986287  0.50886327  0.19584896    -0.06400
C712        C  0.48973678  0.51102438  0.15623185     0.05600
C713        C  0.96571709  0.47656212  0.13157410    -0.13600
C714        C  0.93080010  0.44239364  0.14801099    -0.07000
C715        C  0.94193112  0.47424539  0.25441941     0.06500
C716        C  0.95239350  0.42728779  0.27189154    -0.08100
C717        C  0.95152577  0.42392938  0.31178091     0.01500
C718        C  0.94163633  0.46890092  0.33539233     0.01400
C719        C  0.90625976  0.98336473  0.32055421    -0.11600
C720        C  0.90397421  0.98263258  0.28054100     0.01900
C721        C  0.96051618  0.37351624  0.32722389     0.41200
C722        C  0.85872121  0.00495827  0.26372264     0.37800
C723        C  0.88247286  0.40838460  0.20277616     0.37500
C724        C  0.46944203  0.07468893  0.14243316     0.38300
N725        N  0.96751423  0.33306329  0.33953569    -0.42500
N726        N  0.82232828  0.02274911  0.25032944    -0.43000
N727        N  0.47294553  0.11539840  0.13009246    -0.40300
N728        N  0.85168796  0.38111744  0.21481518    -0.41800
H729        H  0.91058725  0.41603930  0.12971499     0.14400
H730        H  0.45855541  0.05682287  0.21576335     0.10900
H731        H  0.96212989  0.39301326  0.25418565     0.12000
H732        H  0.87470028  0.00149075  0.33801177     0.17800
N733        N  0.97153551  0.69865231  0.96181243    -0.01900
C734        C  0.98574821  0.65328784  0.94277042     0.00700
C735        C  0.96014721  0.64775994  0.90911699    -0.24600
C736        C  0.92132168  0.68435288  0.91110635    -0.22400
C737        C  0.92567515  0.71083681  0.94556981     0.00600
H738        H  0.96064920  0.61353867  0.89057518     0.14400
H739        H  0.88715444  0.68300589  0.89430753     0.14400
N740        N  0.94224073  0.69817112  0.50756705    -0.01900
C741        C  0.96410527  0.65572552  0.52382372     0.00700
C742        C  0.94311710  0.65001447  0.56051748    -0.22200
C743        C  0.89796565  0.67829300  0.56223120    -0.22400
C744        C  0.89560191  0.70227686  0.52752803     0.00600
H745        H  0.95064503  0.61804409  0.57901009     0.14400
H746        H  0.86626875  0.67350736  0.58290087     0.14400
N747        N  0.75488325  0.95169993  0.01333256    -0.01900
C748        C  0.74406349  0.90587269  0.02979446     0.00700
C749        C  0.77293599  0.89786645  0.06154497    -0.22200
C750        C  0.80946783  0.93418036  0.06098274    -0.22400
C751        C  0.80109063  0.96262422  0.02894761     0.00600
H752        H  0.77495678  0.86303185  0.07785533     0.14400
H753        H  0.84460326  0.93230234  0.07677128     0.14400
N754        N  0.73089283  0.96880438  0.48901795    -0.01900
C755        C  0.71232469  0.93395511  0.51402584     0.00700
C756        C  0.71829409  0.95193562  0.55105113    -0.22200
C757        C  0.74867818  0.99405350  0.54840855    -0.22400
C758        C  0.76258609  0.99846207  0.50986189     0.00600
H759        H  0.71181717  0.93066050  0.57689021     0.14400
H760        H  0.76974924  0.00931568  0.57211435     0.14400
O761        O  0.86383110  0.94955274  0.97828133    -0.76900
C762        C  0.99194734  0.95743941  0.88006117     0.84100
O763        O  0.50642504  0.84636796  0.99686528    -0.78000
O764        O  0.61412746  0.48714579  0.97621979    -0.79500
O765        O  0.96863661  0.59510863  0.99187863    -0.79300
O766        O  0.87578360  0.01047771  0.02344361    -0.77900
Zn767      Zn  0.93618164  0.93761160  0.95374286     1.55700
O768        O  0.02702372  0.57198982  0.94473406    -0.79300
Cd769      Cd  0.95478606  0.52471841  0.01622687     1.59700
Cd770      Cd  0.51341342  0.92021162  0.02064675     1.59600
O771        O  0.97442079  0.01273592  0.07540032    -0.79300
O772        O  0.98553161  0.96826194  0.98545471    -1.89800
Cd773      Cd  0.54306799  0.49683993  0.94966761     1.59900
O774        O  0.47885003  0.93368340  0.07455965    -0.79300
O775        O  0.03327704  0.46474796  0.89362464    -0.77900
C776        C  0.98413057  0.83099676  0.96588854     0.84600
C777        C  0.84764759  0.97760577  0.00727881     0.84200
O778        O  0.94821950  0.95809867  0.89867051    -0.76900
C779        C  0.99660731  0.60530244  0.96224960     0.85100
O780        O  0.95351872  0.86188349  0.94954831    -0.77000
C781        C  0.97189825  0.96969189  0.09223417     0.85200
C782        C  0.62266519  0.96466551  0.01034066     0.85500
O783        O  0.58982279  0.93724610  0.02786499    -0.79400
O784        O  0.90772589  0.86607290  0.50330699    -0.76900
C785        C  0.98312046  0.95199840  0.59084680     0.84100
O786        O  0.84015644  0.01533485  0.47097363    -0.78000
O787        O  0.00282007  0.57349135  0.51852685    -0.79500
O788        O  0.57878790  0.92637157  0.44469850    -0.79300
O789        O  0.48071811  0.84604886  0.47450670    -0.77900
Zn790      Zn  0.91716054  0.93795512  0.52102965     1.55700
O791        O  0.59136654  0.48219397  0.48707850    -0.79300
Cd792      Cd  0.49791308  0.91742149  0.45171350     1.59700
Cd793      Cd  0.91857339  0.52192178  0.45679152     1.59600
O794        O  0.47121755  0.92883262  0.39764109    -0.79300
O795        O  0.96435288  0.96840824  0.48568219    -1.89800
Cd796      Cd  0.51831847  0.49704104  0.51189877     1.59900
O797        O  0.93382792  0.00357950  0.39903949    -0.79300
O798        O  0.01329008  0.46881742  0.56981254    -0.77900
C799        C  0.81944859  0.99559609  0.50071516     0.84600
C800        C  0.94436081  0.83369439  0.49471308     0.84200
O801        O  0.94172150  0.93911452  0.57517966    -0.76900
C802        C  0.60929782  0.95731249  0.46078336     0.85100
O803        O  0.84675419  0.96969126  0.52314683    -0.77000
C804        C  0.95025609  0.96255150  0.38050792     0.85200
C805        C  0.97256281  0.60599912  0.50326082     0.85500
O806        O  0.94218161  0.59384557  0.47668816    -0.79400
N807        N  0.00968125  0.73774236  0.96352748    -0.01900
C808        C  0.99930107  0.78267796  0.94543468     0.00700
C809        C  0.52983833  0.78997324  0.91365019    -0.22200
C810        C  0.56775044  0.75277977  0.91537053    -0.22400
C811        C  0.55722945  0.72707976  0.94868461     0.00600
H812        H  0.53267169  0.82383377  0.89635576     0.14400
H813        H  0.60460135  0.75292137  0.89948848     0.14400
N814        N  0.47295449  0.74364119  0.50601560    -0.01900
C815        C  0.94702567  0.78870899  0.51832161     0.00700
C816        C  0.46140281  0.79528674  0.55914719    -0.22200
C817        C  0.50529280  0.76636185  0.56312229    -0.22400
C818        C  0.51571893  0.74216813  0.52765130     0.00600
H819        H  0.45049227  0.82848833  0.57760710     0.14400
H820        H  0.53223426  0.77261899  0.58554141     0.14400
N821        N  0.71575789  0.49251211  0.01527238    -0.01900
C822        C  0.72587312  0.53806137  0.03387330     0.00700
C823        C  0.69240856  0.54757678  0.06521833    -0.22200
C824        C  0.65500481  0.51228565  0.06266567    -0.22400
C825        C  0.66747931  0.98049155  0.03183024     0.00600
H826        H  0.68875593  0.58286626  0.08259997     0.14400
H827        H  0.61777810  0.51516580  0.07802634     0.14400
N828        N  0.69325475  0.49213444  0.46172689    -0.01900
C829        C  0.70380888  0.53536076  0.44187193     0.00700
C830        C  0.68631268  0.52909153  0.40524961    -0.22200
C831        C  0.65982657  0.48403932  0.40423856    -0.22400
C832        C  0.66164191  0.96558066  0.44340485     0.00600
H833        H  0.68422796  0.55850167  0.38395711     0.14400
H834        H  0.63303505  0.47446651  0.38232696     0.14400
O835        O  0.73644621  0.66714381  0.90515984    -0.76900
C836        C  0.74309509  0.58386569  0.01413284     0.84100
O837        O  0.61121035  0.74157732  0.00089521    -0.78000
O838        O  0.77944465  0.72483479  0.07861486    -0.79500
O839        O  0.84506654  0.75366635  0.95030999    -0.79300
O840        O  0.74286038  0.75242941  0.90008667    -0.77900
Zn841      Zn  0.71040974  0.66548409  0.96000274     1.55700
O842        O  0.86413057  0.69925214  0.99680628    -0.79300
Cd843      Cd  0.76685690  0.76942498  0.95526196     1.59700
Cd844      Cd  0.68318491  0.75277849  0.02435774     1.59600
O845        O  0.75403782  0.84441240  0.97824492    -0.79300
O846        O  0.73800468  0.71902308  0.99064481    -1.89800
Cd847      Cd  0.79091616  0.69076729  0.02383045     1.59900
O848        O  0.69864679  0.82989627  0.02734830    -0.79300
O849        O  0.77345237  0.61386118  0.03121699    -0.77900
C850        C  0.60202389  0.71399735  0.97118625     0.84600
C851        C  0.73893854  0.70724047  0.88494433     0.84200
O852        O  0.71931844  0.59692373  0.98451760    -0.76900
C853        C  0.87687515  0.72426702  0.96697421     0.85100
O854        O  0.63564366  0.68268026  0.95524040    -0.77000
C855        C  0.72875138  0.85920030  0.00905506     0.85200
C856        C  0.73639252  0.73243660  0.09773039     0.85500
O857        O  0.69317040  0.73338863  0.08108141    -0.79400
O858        O  0.58362271  0.71488054  0.48032391    -0.76900
C859        C  0.71426040  0.75121774  0.38829493     0.84100
O860        O  0.72868811  0.59774394  0.48966012    -0.78000
O861        O  0.83502113  0.74882966  0.48815178    -0.79500
O862        O  0.68491743  0.85060622  0.52867495    -0.79300
O863        O  0.60183938  0.75942466  0.53332626    -0.77900
Zn864      Zn  0.65910975  0.70201463  0.45678164     1.55700
O865        O  0.74422910  0.85463087  0.48105075    -0.79300
Cd866      Cd  0.67680816  0.77247996  0.53383914     1.59700
Cd867      Cd  0.73540273  0.66828683  0.51876296     1.59600
O868        O  0.69747729  0.75025604  0.58725356    -0.79300
O869        O  0.70831717  0.72927396  0.49176223    -1.89800
Cd870      Cd  0.76151902  0.77401378  0.46705429     1.59900
O871        O  0.71079404  0.66605381  0.57634305    -0.79300
O872        O  0.75351270  0.76403267  0.40737614    -0.77900
C873        C  0.70301899  0.58844312  0.46014780     0.84600
C874        C  0.56971648  0.73773106  0.51235066     0.84200
O875        O  0.67374926  0.73379395  0.40500582    -0.76900
C876        C  0.71297641  0.87689210  0.50640363     0.85100
O877        O  0.67514168  0.62422702  0.44594270    -0.77000
C878        C  0.70349206  0.70482385  0.59949722     0.85200
C879        C  0.84484647  0.71170914  0.51072438     0.85500
O880        O  0.81066818  0.68101597  0.52197277    -0.79400
C881        C  0.68358834  0.67476072  0.78933464    -0.00400
C882        C  0.72226132  0.69133535  0.76335363     0.08200
C883        C  0.76751869  0.71169890  0.77755918    -0.06400
C884        C  0.77395277  0.71690706  0.81712566     0.05600
C885        C  0.73496264  0.70096777  0.84306522    -0.13600
C886        C  0.69050309  0.67899642  0.82884584    -0.07000
C887        C  0.71483019  0.69092733  0.72141915     0.06500
C888        C  0.67903550  0.72632263  0.70705913    -0.08100
C889        C  0.67315403  0.73000762  0.66758305     0.01500
C890        C  0.70367074  0.69775622  0.64151773     0.01400
C891        C  0.73776455  0.66060096  0.65610243    -0.11600
C892        C  0.74376506  0.65726227  0.69569597     0.01900
C893        C  0.63491631  0.76675344  0.65480187     0.41200
C894        C  0.78012272  0.61941905  0.70934950     0.37800
C895        C  0.63608882  0.65437893  0.77606399     0.37500
C896        C  0.82125163  0.73758768  0.83046019     0.38300
N897        N  0.60410187  0.79616548  0.64478344    -0.42500
N898        N  0.80930592  0.58917193  0.72040704    -0.43000
N899        N  0.85930453  0.75391972  0.84113735    -0.40300
N900        N  0.59779900  0.63862149  0.76535143    -0.41800
H901        H  0.66041348  0.66660506  0.84869758     0.14400
H902        H  0.79735068  0.72450443  0.75768087     0.10900
H903        H  0.65622393  0.75181814  0.72682162     0.12000
H904        H  0.76125316  0.63547047  0.63652325     0.17800
C905        C  0.69389457  0.78106027  0.19827573    -0.00400
C906        C  0.73110866  0.75749606  0.22111752     0.08200
C907        C  0.77155207  0.72723250  0.20307578    -0.06400
C908        C  0.77450920  0.71897048  0.16309951     0.05600
C909        C  0.73626900  0.74122268  0.14019038    -0.13600
C910        C  0.69659508  0.77267172  0.15834430    -0.07000
C911        C  0.72575749  0.75968528  0.26389355     0.06500
C912        C  0.68461576  0.73458615  0.28172059    -0.08100
C913        C  0.67931823  0.73225676  0.32174579     0.01500
C914        C  0.71624336  0.75529632  0.34536146     0.01400
C915        C  0.75697203  0.78143321  0.32716836    -0.11600
C916        C  0.76174772  0.78397836  0.28698605     0.01900
C917        C  0.63599526  0.70466275  0.33715580     0.41200
C918        C  0.80299446  0.81298415  0.27007449     0.37800
C919        C  0.65286055  0.81445002  0.21521229     0.37500
C920        C  0.81560496  0.68517641  0.14673616     0.38300
N921        N  0.60110051  0.68258088  0.34925307    -0.42500
N922        N  0.83571865  0.83671832  0.25654274    -0.43000
N923        N  0.84843740  0.65800809  0.13356760    -0.40300
N924        N  0.62011802  0.84140695  0.22876065    -0.41800
H925        H  0.66751971  0.79092275  0.14127373     0.14400
H926        H  0.79999888  0.70855577  0.22046501     0.10900
H927        H  0.65682648  0.71578893  0.26409436     0.12000
H928        H  0.78532443  0.80007598  0.34431720     0.17800
C929        C  0.02477581  0.47378631  0.77102903    -0.00400
C930        C  0.99501784  0.94234612  0.75634687     0.08200
C931        C  0.95904470  0.91537815  0.77857333    -0.06400
C932        C  0.95799650  0.91891860  0.81873024     0.05600
C933        C  0.99354725  0.95003023  0.83761443    -0.13600
C934        C  0.02527220  0.47861517  0.81121615    -0.07000
C935        C  0.99116781  0.94212823  0.71371366     0.06500
C936        C  0.53659865  0.94256908  0.69117032    -0.08100
C937        C  0.53466066  0.94432794  0.65114716     0.01500
C938        C  0.98675431  0.94627671  0.63283083     0.01400
C939        C  0.94353639  0.96120117  0.65671612    -0.11600
C940        C  0.94547221  0.95967126  0.69667943     0.01900
C941        C  0.57957886  0.92631086  0.62810476     0.41200
C942        C  0.90051954  0.97790409  0.71964775     0.37800
C943        C  0.56899872  0.50553491  0.75047126     0.37500
C944        C  0.92104496  0.88898963  0.83983109     0.38300
N945        N  0.61538465  0.91158691  0.60952225    -0.42500
N946        N  0.86459185  0.99205838  0.73832795    -0.43000
N947        N  0.89167022  0.86502686  0.85697292    -0.40300
N948        N  0.59867719  0.52860113  0.73288541    -0.41800
H949        H  0.56020606  0.50229418  0.82605540     0.14400
H950        H  0.93123841  0.89185430  0.76442026     0.10900
H951        H  0.57182562  0.92884570  0.70387712     0.12000
H952        H  0.90846836  0.97560780  0.64412094     0.17800
C953        C  0.95306953  0.91631092  0.19173973    -0.00400
C954        C  0.94703948  0.96142485  0.21514847     0.08200
C955        C  0.45936336  0.02156758  0.19825454    -0.06400
C956        C  0.46515038  0.02417315  0.15830725     0.05600
C957        C  0.96241253  0.96844195  0.13466436    -0.13600
C958        C  0.96047278  0.92010919  0.15203716    -0.07000
C959        C  0.94507015  0.95945052  0.25761022     0.06500
C960        C  0.98717832  0.93637710  0.27534253    -0.08100
C961        C  0.98907578  0.93606923  0.31519275     0.01500
C962        C  0.94852081  0.96029472  0.33827135     0.01400
C963        C  0.92970930  0.51568016  0.31771394    -0.11600
C964        C  0.92942209  0.51858247  0.27774548     0.01900
C965        C  0.03428064  0.91247335  0.33136955     0.41200
C966        C  0.91553622  0.56736388  0.26138397     0.37800
C967        C  0.95217637  0.86566410  0.20786365     0.37500
C968        C  0.52620621  0.54772228  0.14227423     0.38300
N969        N  0.07046653  0.89334203  0.34416127    -0.42500
N970        N  0.90433336  0.60642781  0.24828005    -0.43000
N971        N  0.55551519  0.57727069  0.13141167    -0.40300
N972        N  0.95181336  0.82519388  0.22093280    -0.41800
H973        H  0.96533680  0.88483383  0.13468663     0.14400
H974        H  0.49932504  0.53472696  0.21500649     0.10900
H975        H  0.01930645  0.91931817  0.25786625     0.12000
H976        H  0.92124469  0.55049523  0.33506492     0.17800
loop_ 
_geom_bond_atom_site_label_1 
_geom_bond_atom_site_label_2 
_geom_bond_distance 
_geom_bond_site_symmetry_2 
_ccdc_geom_bond_type 
N1            C5   1.368       .  A
N1            C2   1.366       .  A
N1           N75   1.442       .  S
C2            C3   1.380       .  A
C2           C47   1.462       .  S
C3            C4   1.358       .  A
C3            H6   1.083       .  S
C4            C5   1.381       .  A
C4            H7   1.083       .  S
C5          C121   1.465       .  S
N8           C12   1.369       .  A
N8            C9   1.368       .  A
N8          N570   1.438       .  S
C9           C10   1.385       .  A
C9           C73   1.458       .  S
C10          C11   1.357       .  A
C10          H13   1.084       .  S
C11          C12   1.382       .  A
C11          H14   1.083       .  S
C12         C147   1.476       .  S
N15          C19   1.372       .  A
N15          C16   1.368       .  A
N15         N333   1.439       .  S
C16          C17   1.380       .  A
C16         C123   1.467       .  S
C17          C18   1.358       .  A
C17          H20   1.083       .  S
C18          C19   1.379       .  A
C18          H21   1.083       .  S
C19          C45   1.473       .  S
N22          C26   1.362       .  A
N22          C23   1.363       .  A
N22         N340   1.428       .  S
C23          C24   1.380       .  A
C23         C144   1.499       .  S
C24          C25   1.372       .  A
C24          H27   1.083       .  S
C25          C26   1.388       .  A
C25          H28   1.083       .  S
C26          C67   1.491       .  S
O29          C45   1.279   1_556  A
O29         Zn35   2.051       .  S
C30         C201   1.492       .  S
C30          O46   1.282       .  A
C30         O287   1.283       .  A
O31         C532   1.276   1_455  A
O31         Cd38   2.069   1_556  S
O32         C294   1.279   1_556  A
O32         Cd41   2.097       .  S
O33          C47   1.279       .  A
O33         Cd37   2.083   1_556  S
O34          C45   1.276       .  A
O34        Cd281   2.071       .  S
Zn35         O46   2.031       .  S
Zn35         O48   1.997       .  S
Zn35         O40   1.903       .  S
O36          C47   1.274       .  A
O36        Cd529   2.053   1_545  S
Cd37        O278   2.068       .  S
Cd37        O283   2.072       .  S
Cd37        O284   1.964   1_544  S
Cd38         O42   2.073   1_455  S
Cd38         O51   2.068       .  S
Cd38        O528   1.958   1_454  S
O39          C49   1.279       .  A
O39        Cd281   2.079       .  S
O40        Cd281   1.964   1_556  S
O40        Cd526   1.956   1_556  S
O40        Cd773   1.967       .  S
Cd41        O524   2.059   1_565  S
Cd41        O531   2.085       .  S
Cd41        O772   1.963   1_455  S
O42         C537   1.278       .  A
O43         C274   1.280       .  A
O43        Cd529   2.075       .  S
C44          C76   1.458       .  S
C44          O48   1.272       .  A
C44         O519   1.275       .  A
C49         C225   1.478       .  S
C49         O530   1.277       .  A
C50          C93   1.477       .  S
C50          O51   1.277       .  A
C50         O276   1.282   1_554  A
O52          C68   1.265       .  A
O52         Zn58   1.975       .  S
C53         C206   1.487       .  S
C53          O69   1.274       .  A
C53         O310   1.274       .  A
O54          C67   1.279       .  A
O54        Cd305   2.147       .  S
O55          C73   1.274       .  A
O55        Cd552   2.036       .  S
O56          C70   1.279       .  A
O56         Cd60   2.109   1_455  S
O57         C556   1.278       .  A
O57         Cd60   2.089       .  S
Zn58         O69   2.029       .  S
Zn58         O71   1.963       .  S
Zn58         O63   1.912       .  S
O59         C314   1.275       .  A
O59         Cd64   2.074       .  S
Cd60         O62   2.065       .  S
Cd60        O551   1.991       .  S
Cd61         O74   2.084       .  S
Cd61        O298   2.143       .  S
Cd61        O309   2.075       .  S
Cd61        O307   2.007   1_545  S
O62         C560   1.278       .  A
O63        Cd548   1.989       .  S
O63        Cd305   2.011       .  S
O63        Cd796   1.985       .  S
Cd64        O543   2.042   1_565  S
Cd64        O554   2.087       .  S
Cd64        O795   1.986   1_455  S
O65          C72   1.282       .  A
O65        Cd305   2.090       .  S
O66         C297   1.273       .  A
O66        Cd552   2.071   1_565  S
C67          O71   1.267       .  A
C68          C83   1.453       .  S
C68         O545   1.278       .  A
C70         C100   1.488       .  S
C70         O303   1.274       .  A
C72         C230   1.495       .  S
C72         O550   1.278       .  A
C73          O74   1.280       .  A
N75          C76   1.367       .  A
N75         C567   1.367       .  A
C76         C565   1.380       .  A
C77          C78   1.358       .  A
C77         C564   1.380   1_455  A
C77          H80   1.084       .  S
C78          C79   1.381       .  A
C78          H81   1.084       .  S
C79         N563   1.366       .  A
C79         C118   1.466       .  S
N82          C86   1.365   1_655  A
N82         C571   1.364       .  A
N82         N496   1.440       .  S
C83         N570   1.363       .  A
C83         C572   1.384       .  A
C84          C85   1.356       .  A
C84         C571   1.384       .  A
C84          H87   1.079       .  S
C85          C86   1.385   1_655  A
C85          H88   1.083   1_655  S
C86         C142   1.478       .  S
N89          C90   1.370   1_565  A
N89         C337   1.370       .  A
N89         N259   1.439       .  S
C90          C91   1.379       .  A
C90         C104   1.465       .  S
C91          C92   1.358       .  A
C91          H94   1.083       .  S
C92         C337   1.379   1_545  A
C92          H95   1.083       .  S
C93         N333   1.373       .  A
C93         C336   1.380       .  A
N96          C97   1.365   1_565  A
N96         C344   1.361       .  A
N96         N266   1.428       .  S
C97          C98   1.383       .  A
C97         C141   1.502       .  S
C98          C99   1.376   1_545  A
C98         H101   1.083       .  S
C99         C344   1.385       .  A
C99         H102   1.083       .  S
C100        N340   1.363       .  A
C100        C343   1.385       .  A
O103        C119   1.276       .  A
O103       Zn109   2.007       .  S
C104        O120   1.274   1_554  A
C104        O117   1.277       .  A
O105        C118   1.282   1_554  A
O105       Cd112   2.108       .  S
O106        C124   1.281       .  A
O106       Cd115   2.084       .  S
O107        C121   1.273       .  A
O107       Cd111   2.046       .  S
O108        C119   1.280       .  A
O108       Cd111   2.082       .  S
Zn109       O120   2.010       .  S
Zn109       O122   1.978       .  S
Zn109       O114   1.907       .  S
O110        C121   1.281       .  A
O110       Cd115   2.098   1_556  S
Cd111       O113   2.080       .  S
Cd111       O114   1.969       .  S
Cd112       O116   2.066       .  S
Cd112       O125   2.092       .  S
Cd112       O114   1.973   1_554  S
O113        C123   1.277   1_556  A
O114       Cd115   1.968   1_556  S
Cd115       O117   2.078       .  S
O116        C123   1.274       .  A
C118        O122   1.270       .  A
C119        C153   1.475       .  S
C124        C177   1.491       .  S
C124        O125   1.284       .  A
O126        C142   1.285       .  A
O126       Zn132   2.106       .  S
C127        C182   1.503       .  S
C127        O143   1.282       .  A
C127        O140   1.284       .  A
O128        C141   1.271       .  A
O128       Cd135   2.084       .  S
O129        C147   1.286       .  A
O129       Cd138   2.150       .  S
O130        C144   1.273       .  A
O130       Cd134   2.073       .  S
O131        C142   1.268       .  A
O131       Cd134   1.993       .  S
Zn132       O143   2.039       .  S
Zn132       O145   2.074       .  S
Zn132       O137   1.939       .  S
O133        C144   1.285       .  A
O133       Cd138   2.157       .  S
Cd134       O136   2.061       .  S
Cd134       O137   1.964       .  S
Cd135       O139   2.082       .  S
Cd135       O148   1.993       .  S
Cd135       O137   1.989       .  S
O136        C146   1.274       .  A
O137       Cd138   2.014       .  S
Cd138       O140   2.101       .  S
O139        C146   1.277       .  A
C141        O145   1.282       .  A
C146        C158   1.482       .  S
C147        O148   1.267       .  A
C149        C150   1.412       .  A
C149        C154   1.401       .  A
C149        C163   1.444       .  S
C150        C151   1.405       .  A
C150        C155   1.488       .  S
C151        C152   1.402       .  A
C151        H170   1.084       .  S
C152        C153   1.408       .  A
C152        C164   1.443       .  S
C153        C154   1.403       .  A
C154        H169   1.085       .  S
C155        C156   1.402       .  A
C155        C160   1.412       .  A
C156        C157   1.399       .  A
C156        H171   1.085       .  S
C157        C158   1.414       .  A
C157        C161   1.444       .  S
C158        C159   1.405       .  A
C159        C160   1.403       .  A
C159        H172   1.085       .  S
C160        C162   1.443       .  S
C161        N165   1.157       .  T
C162        N166   1.157       .  T
C163        N168   1.157       .  T
C164        N167   1.157       .  T
C173        C174   1.415       .  A
C173        C178   1.403       .  A
C173        C187   1.444       .  S
C174        C175   1.407       .  A
C174        C179   1.502       .  S
C175        C176   1.406       .  A
C175        H194   1.084       .  S
C176        C177   1.416       .  A
C176        C188   1.444       .  S
C177        C178   1.405       .  A
C178        H193   1.085       .  S
C179        C180   1.404       .  A
C179        C184   1.414       .  A
C180        C181   1.402       .  A
C180        H195   1.085       .  S
C181        C182   1.420       .  A
C181        C185   1.444       .  S
C182        C183   1.411       .  A
C183        C184   1.407       .  A
C183        H196   1.084       .  S
C184        C186   1.444       .  S
C185        N189   1.157       .  T
C186        N190   1.157       .  T
C187        N192   1.157       .  T
C188        N191   1.157       .  T
C197        C202   1.403       .  A
C197        C442   1.413       .  A
C197        C699   1.444   1_565  S
C198        C199   1.405       .  A
C198        C441   1.415       .  A
C198        C203   1.500       .  S
C199        C200   1.402       .  A
C199        H218   1.085       .  S
C200        C201   1.416       .  A
C200        C212   1.444       .  S
C201        C446   1.406       .  A
C202        C445   1.405       .  A
C202        H705   1.085   1_565  S
C203        C208   1.415       .  A
C203        C692   1.407       .  A
C204        C205   1.406       .  A
C204        C691   1.408   1_455  A
C204        H219   1.084       .  S
C205        C694   1.412   1_455  A
C205        C209   1.444       .  S
C206        C207   1.404       .  A
C206        C693   1.412       .  A
C207        C208   1.402       .  A
C207        H220   1.085       .  S
C208        C210   1.444       .  S
C209        N213   1.157       .  T
C210        N214   1.157       .  T
C211        C685   1.443       .  S
C211        N216   1.157   1_565  T
C212        N215   1.157       .  T
H217        C690   1.085       .  S
C221        C222   1.409       .  A
C221        C226   1.399       .  A
C221        C235   1.444       .  S
C222        C711   1.403       .  A
C222        C227   1.483       .  S
C223        C224   1.400       .  A
C223        C710   1.405       .  A
C223        H486   1.085   1_655  S
C224        C713   1.412       .  A
C224        C480   1.444   1_655  S
C225        C226   1.405       .  A
C225        C712   1.413       .  A
C226        H241   1.085       .  S
C227        C228   1.399       .  A
C227        C476   1.408       .  A
C228        C229   1.399       .  A
C228        H243   1.086       .  S
C229        C230   1.423       .  A
C229        C233   1.445       .  S
C230        C475   1.410       .  A
C231        C232   1.401       .  A
C231        C474   1.405       .  A
C231        H244   1.085   1_565  S
C232        C471   1.411       .  A
C232        C234   1.444   1_565  S
C233        N237   1.157       .  T
C234        N238   1.157       .  T
C235        N240   1.157       .  T
C236        C468   1.443       .  S
C236        N239   1.157       .  T
H242        C467   1.085       .  S
N245        C249   1.367       .  A
N245        C246   1.368       .  A
N245        N319   1.441       .  S
C246        C247   1.380       .  A
C246        C291   1.462       .  S
C247        C248   1.358       .  A
C247        H250   1.083       .  S
C248        C249   1.381       .  A
C248        H251   1.083       .  S
C249        C365   1.467       .  S
N252        C256   1.370       .  A
N252        C253   1.370       .  A
N252        N814   1.442       .  S
C253        C254   1.385       .  A
C253        C317   1.460       .  S
C254        C255   1.355       .  A
C254        H257   1.084       .  S
C255        C256   1.382       .  A
C255        H258   1.083       .  S
C256        C391   1.474       .  S
N259        C263   1.370       .  A
N259        C260   1.371       .  A
C260        C261   1.381       .  A
C260        C367   1.469       .  S
C261        C262   1.358       .  A
C261        H264   1.083       .  S
C262        C263   1.378       .  A
C262        H265   1.083       .  S
C263        C289   1.470       .  S
N266        C270   1.362       .  A
N266        C267   1.363       .  A
C267        C268   1.379       .  A
C267        C388   1.499       .  S
C268        C269   1.371       .  A
C268        H271   1.082       .  S
C269        C270   1.388       .  A
C269        H272   1.083   1_565  S
C270        C311   1.492       .  S
O273        C289   1.278   1_556  A
O273       Zn279   2.044       .  S
C274        C445   1.484       .  S
C274        O290   1.281       .  A
O275        C776   1.276   1_455  A
O275       Cd282   2.066   1_556  S
O276       Cd285   2.113       .  S
O277        C291   1.278       .  A
O277       Cd281   2.077   1_556  S
O278        C289   1.275   1_545  A
Zn279       O290   2.025       .  S
Zn279       O292   1.996       .  S
Zn279       O284   1.904       .  S
O280        C291   1.275       .  A
O280       Cd773   2.062       .  S
Cd282       O286   2.065   1_455  S
Cd282       O295   2.062       .  S
Cd282       O772   1.956   1_454  S
O283        C293   1.278   1_545  A
O284       Cd770   1.957   1_556  S
O284       Cd529   1.966       .  S
Cd285       O768   2.059       .  S
Cd285       O775   2.100       .  S
Cd285       O528   1.970   1_455  S
O286        C781   1.278       .  A
O287       Cd773   2.092       .  S
C288        C320   1.464       .  S
C288        O763   1.278       .  A
C288        O292   1.272       .  A
C293        C469   1.492       .  S
C293        O774   1.280       .  A
C294        C337   1.470       .  S
C294        O295   1.275       .  A
O296        C312   1.267       .  A
O296       Zn302   1.946       .  S
C297        C450   1.484       .  S
C297        O313   1.272       .  A
O298        C311   1.278   1_545  A
O299        C317   1.274       .  A
O299       Cd796   2.031       .  S
O300        C314   1.279       .  A
O300       Cd304   2.109   1_455  S
O301        C800   1.277       .  A
O301       Cd304   2.070       .  S
Zn302       O313   2.011       .  S
Zn302       O315   1.970       .  S
Zn302       O307   1.902       .  S
O303       Cd308   2.075       .  S
Cd304       O306   2.051       .  S
Cd304       O795   1.985       .  S
Cd305       O318   2.094       .  S
O306        C804   1.276       .  A
O307       Cd792   1.991       .  S
O307       Cd552   1.984   1_565  S
Cd308       O787   2.043       .  S
Cd308       O798   2.079       .  S
Cd308       O551   1.989   1_455  S
O309        C316   1.280   1_545  A
O310       Cd796   2.075       .  S
C311        O315   1.268       .  A
C312        C327   1.458       .  S
C312        O789   1.280       .  A
C314        C344   1.487       .  S
C316        C474   1.479       .  S
C316        O794   1.278       .  A
C317        O318   1.281       .  A
N319        C811   1.367       .  A
N319        C320   1.368       .  A
C320        C809   1.380       .  A
C321        C808   1.380   1_455  A
C321        C322   1.358       .  A
C321        H324   1.084       .  S
C322        C323   1.381       .  A
C322        H325   1.084       .  S
C323        N807   1.367       .  A
C323        C362   1.466       .  S
N326        C330   1.366   1_655  A
N326        C815   1.364       .  A
N326        N740   1.440       .  S
C327        N814   1.366       .  A
C327        C816   1.388       .  A
C328        C815   1.384       .  A
C328        C329   1.356   1_655  A
C328        H331   1.082       .  S
C329        C330   1.385       .  A
C329        H332   1.082       .  S
C330        C386   1.476       .  S
N333        C334   1.370       .  A
C334        C335   1.378       .  A
C334        C348   1.463       .  S
C335        C336   1.359       .  A
C335        H338   1.083       .  S
C336        H339   1.083       .  S
N340        C341   1.365       .  A
C341        C342   1.382       .  A
C341        C385   1.500       .  S
C342        C343   1.375       .  A
C342        H345   1.083       .  S
C343        H346   1.083       .  S
O347        C363   1.275       .  A
O347       Zn353   2.000       .  S
C348        O364   1.273   1_554  A
C348        O361   1.278       .  A
O349        C362   1.281   1_554  A
O349       Cd356   2.104       .  S
O350        C368   1.282       .  A
O350       Cd359   2.092       .  S
O351        C365   1.273       .  A
O351       Cd355   2.045       .  S
O352        C363   1.279       .  A
O352       Cd355   2.078       .  S
Zn353       O364   1.996       .  S
Zn353       O366   1.979       .  S
Zn353       O358   1.902       .  S
O354        C365   1.283       .  A
O354       Cd359   2.109   1_556  S
Cd355       O357   2.083       .  S
Cd355       O358   1.965       .  S
Cd356       O360   2.066       .  S
Cd356       O369   2.088       .  S
Cd356       O358   1.967   1_554  S
O357        C367   1.277   1_556  A
O358       Cd359   1.968   1_556  S
Cd359       O361   2.084       .  S
O360        C367   1.275       .  A
C362        O366   1.270       .  A
C363        C397   1.471       .  S
C368        C421   1.494       .  S
C368        O369   1.283       .  A
O370        C386   1.283       .  A
O370       Zn376   2.094       .  S
C371        C426   1.504       .  S
C371        O387   1.280       .  A
C371        O384   1.284       .  A
O372        C385   1.272       .  A
O372       Cd379   2.088       .  S
O373        C391   1.286       .  A
O373       Cd382   2.149       .  S
O374        C388   1.274       .  A
O374       Cd378   2.068       .  S
O375        C386   1.268       .  A
O375       Cd378   1.994       .  S
Zn376       O387   2.027       .  S
Zn376       O389   2.060       .  S
Zn376       O381   1.933       .  S
O377        C388   1.285       .  A
O377       Cd382   2.159       .  S
Cd378       O380   2.062       .  S
Cd378       O381   1.959       .  S
Cd379       O383   2.086       .  S
Cd379       O392   1.995       .  S
Cd379       O381   1.986       .  S
O380        C390   1.274       .  A
O381       Cd382   2.014       .  S
Cd382       O384   2.107       .  S
O383        C390   1.277       .  A
C385        O389   1.280       .  A
C390        C402   1.483       .  S
C391        O392   1.268       .  A
C393        C394   1.411       .  A
C393        C398   1.400       .  A
C393        C407   1.443       .  S
C394        C395   1.405       .  A
C394        C399   1.485       .  S
C395        C396   1.401       .  A
C395        H414   1.084       .  S
C396        C397   1.407       .  A
C396        C408   1.442       .  S
C397        C398   1.403       .  A
C398        H413   1.085       .  S
C399        C400   1.401       .  A
C399        C404   1.411       .  A
C400        C401   1.400       .  A
C400        H415   1.085       .  S
C401        C402   1.415       .  A
C401        C405   1.443       .  S
C402        C403   1.405       .  A
C403        C404   1.403       .  A
C403        H416   1.085       .  S
C404        C406   1.443       .  S
C405        N409   1.157       .  T
C406        N410   1.157       .  T
C407        N412   1.157       .  T
C408        N411   1.157       .  T
C417        C418   1.411       .  A
C417        C422   1.403       .  A
C417        C431   1.444       .  S
C418        C419   1.405       .  A
C418        C423   1.496       .  S
C419        C420   1.407       .  A
C419        H438   1.085       .  S
C420        C421   1.417       .  A
C420        C432   1.444       .  S
C421        C422   1.407       .  A
C422        H437   1.085       .  S
C423        C424   1.401       .  A
C423        C428   1.410       .  A
C424        C425   1.402       .  A
C424        H439   1.085       .  S
C425        C426   1.424       .  A
C425        C429   1.444       .  S
C426        C427   1.411       .  A
C427        C428   1.407       .  A
C427        H440   1.084       .  S
C428        C430   1.442       .  S
C429        N433   1.157       .  T
C430        N434   1.157       .  T
C431        N436   1.157       .  T
C432        N435   1.158       .  T
C441        C446   1.406       .  A
C441        C943   1.443       .  S
C442        C443   1.404       .  A
C442        C447   1.492       .  S
C443        C444   1.400       .  A
C443        H462   1.085       .  S
C444        C445   1.413       .  A
C444        C456   1.444       .  S
C446        H949   1.085       .  S
C447        C936   1.406       .  A
C447        C452   1.413       .  A
C448        C935   1.407   1_455  A
C448        C449   1.406       .  A
C448        H463   1.084       .  S
C449        C938   1.412   1_455  A
C449        C453   1.443       .  S
C450        C937   1.414       .  A
C450        C451   1.404       .  A
C451        C452   1.398       .  A
C451        H464   1.085       .  S
C452        C454   1.444       .  S
C453        N457   1.157       .  T
C454        N458   1.157   1_565  T
C455        C929   1.444       .  S
C455        N460   1.157       .  T
C456        N459   1.157       .  T
H461        C934   1.085       .  S
C465        C466   1.409       .  A
C465        C470   1.396       .  A
C465        C479   1.444       .  S
C466        C955   1.402   1_565  A
C466        C471   1.484       .  S
C467        C954   1.401   1_545  A
C467        C468   1.400       .  A
C468        C957   1.419   1_545  A
C469        C956   1.420   1_565  A
C469        C470   1.408       .  A
C470        H485   1.084       .  S
C471        C472   1.402       .  A
C472        C473   1.396       .  A
C472        H487   1.085       .  S
C473        C474   1.415       .  A
C473        C477   1.445       .  S
C475        C476   1.402       .  A
C475        H488   1.084       .  S
C476        C478   1.444       .  S
C477        N481   1.157       .  T
C478        N482   1.157       .  T
C479        N484   1.157       .  T
C480        N483   1.157       .  T
N489        C493   1.368       .  A
N489        C490   1.369       .  A
N489        N563   1.442   1_655  S
C490        C491   1.380       .  A
C490        C535   1.466       .  S
C491        C492   1.357       .  A
C491        H494   1.083       .  S
C492        C493   1.380       .  A
C492        H495   1.083       .  S
C493        C609   1.464       .  S
N496        C500   1.370       .  A
N496        C497   1.370       .  A
C497        C498   1.386       .  A
C497        C561   1.463       .  S
C498        C499   1.356       .  A
C498        H501   1.084       .  S
C499        C500   1.381       .  A
C499        H502   1.083       .  S
C500        C635   1.476       .  S
N503        C507   1.370       .  A
N503        C504   1.370       .  A
N503        N821   1.439       .  S
C504        C505   1.381       .  A
C504        C611   1.469       .  S
C505        C506   1.359       .  A
C505        H508   1.083       .  S
C506        C507   1.379       .  A
C506        H509   1.083       .  S
C507        C533   1.472       .  S
N510        C514   1.362       .  A
N510        C511   1.363       .  A
N510        N828   1.429       .  S
C511        C512   1.380       .  A
C511        C632   1.499       .  S
C512        C513   1.371       .  A
C512        H515   1.082       .  S
C513        C514   1.387       .  A
C513        H516   1.083       .  S
C514        C555   1.489       .  S
O517        C533   1.280   1_556  A
O517       Zn523   2.053       .  S
C518        C689   1.493       .  S
C518        O534   1.282       .  A
C518        O775   1.284   1_655  A
O519       Cd526   2.064   1_556  S
O520        C782   1.278   1_556  A
O520       Cd529   2.094       .  S
O521        C535   1.280       .  A
O521       Cd525   2.090   1_556  S
O522        C533   1.275       .  A
O522       Cd769   2.066       .  S
Zn523       O534   2.033       .  S
Zn523       O536   2.003       .  S
Zn523       O528   1.904       .  S
O524        C535   1.275   1_455  A
Cd525       O766   2.062       .  S
Cd525       O771   2.081       .  S
Cd525       O772   1.967   1_544  S
Cd526       O530   2.063       .  S
Cd526       O539   2.062       .  S
O527        C537   1.278       .  A
O527       Cd769   2.071       .  S
O528       Cd769   1.964   1_556  S
O531        C762   1.281   1_455  A
C532        C564   1.461       .  S
C532        O536   1.273       .  A
C537        C713   1.479       .  S
C538        C581   1.472       .  S
C538        O764   1.281   1_554  A
C538        O539   1.275       .  A
O540        C556   1.265       .  A
O540       Zn546   1.983       .  S
C541        C694   1.486       .  S
C541        O557   1.275       .  A
C541        O798   1.275   1_655  A
O542        C555   1.278       .  A
O542       Cd793   2.141       .  S
O543        C561   1.276   1_455  A
O544        C558   1.281       .  A
O544       Cd548   2.119       .  S
O545       Cd548   2.083       .  S
Zn546       O557   2.031       .  S
Zn546       O559   1.967       .  S
Zn546       O551   1.912       .  S
O547        C802   1.273       .  A
O547       Cd552   2.061   1_565  S
Cd548       O550   2.064       .  S
Cd549       O786   2.140       .  S
Cd549       O797   2.086       .  S
Cd549       O562   2.093       .  S
Cd549       O795   2.007   1_545  S
O551       Cd793   2.011       .  S
O553        C560   1.281       .  A
O553       Cd793   2.083       .  S
O554        C785   1.276   1_455  A
C555        O559   1.268       .  A
C556        C571   1.457       .  S
C558        C588   1.489       .  S
C558        O791   1.273       .  A
C560        C718   1.492       .  S
C561        O562   1.281       .  A
N563        C564   1.368   1_455  A
C565        C566   1.357       .  A
C565        H568   1.084       .  S
C566        C567   1.381       .  A
C566        H569   1.084       .  S
C567        C606   1.466       .  S
N570        C574   1.365       .  A
C572        C573   1.356       .  A
C572        H575   1.081       .  S
C573        C574   1.385       .  A
C573        H576   1.083       .  S
C574        C630   1.477       .  S
N577        C825   1.370       .  A
N577        C578   1.370   1_565  A
N577        N747   1.439       .  S
C578        C579   1.379       .  A
C578        C592   1.463       .  S
C579        C580   1.359       .  A
C579        H582   1.083       .  S
C580        C825   1.380   1_545  A
C580        H583   1.083       .  S
C581        N821   1.370       .  A
C581        C824   1.379       .  A
N584        C832   1.362       .  A
N584        C585   1.363   1_565  A
N584        N754   1.427       .  S
C585        C586   1.383       .  A
C585        C629   1.500       .  S
C586        C587   1.376   1_545  A
C586        H589   1.083       .  S
C587        C832   1.385       .  A
C587        H590   1.083       .  S
C588        N828   1.364       .  A
C588        C831   1.385       .  A
O591        C607   1.276       .  A
O591       Zn597   2.007       .  S
C592        O608   1.273   1_554  A
C592        O605   1.276       .  A
O593        C606   1.282   1_554  A
O593       Cd600   2.109       .  S
O594        C612   1.280       .  A
O594       Cd603   2.080       .  S
O595        C609   1.274       .  A
O595       Cd599   2.048       .  S
O596        C607   1.280       .  A
O596       Cd599   2.083       .  S
Zn597       O608   2.005       .  S
Zn597       O610   1.976       .  S
Zn597       O602   1.904       .  S
O598        C609   1.281       .  A
O598       Cd603   2.096   1_556  S
Cd599       O601   2.084       .  S
Cd599       O602   1.968       .  S
Cd600       O604   2.070       .  S
Cd600       O613   2.089       .  S
Cd600       O602   1.971   1_554  S
O601        C611   1.277   1_556  A
O602       Cd603   1.967   1_556  S
Cd603       O605   2.076       .  S
O604        C611   1.275       .  A
C606        O610   1.270       .  A
C607        C641   1.473       .  S
C612        C665   1.485       .  S
C612        O613   1.283       .  A
O614        C630   1.285       .  A
O614       Zn620   2.105       .  S
C615        C670   1.502       .  S
C615        O631   1.281       .  A
C615        O628   1.283       .  A
O616        C629   1.272       .  A
O616       Cd623   2.087       .  S
O617        C635   1.287       .  A
O617       Cd626   2.150       .  S
O618        C632   1.273       .  A
O618       Cd622   2.069       .  S
O619        C630   1.267       .  A
O619       Cd622   1.988       .  S
Zn620       O631   2.040       .  S
Zn620       O633   2.069       .  S
Zn620       O625   1.940       .  S
O621        C632   1.285       .  A
O621       Cd626   2.159       .  S
Cd622       O624   2.060       .  S
Cd622       O625   1.959       .  S
Cd623       O627   2.090       .  S
Cd623       O636   1.995       .  S
Cd623       O625   1.990       .  S
O624        C634   1.274       .  A
O625       Cd626   2.011       .  S
Cd626       O628   2.097       .  S
O627        C634   1.278       .  A
C629        O633   1.281       .  A
C634        C646   1.486       .  S
C635        O636   1.268       .  A
C637        C638   1.412       .  A
C637        C642   1.401       .  A
C637        C651   1.444       .  S
C638        C639   1.405       .  A
C638        C643   1.488       .  S
C639        C640   1.402       .  A
C639        H658   1.084       .  S
C640        C641   1.408       .  A
C640        C652   1.443       .  S
C641        C642   1.403       .  A
C642        H657   1.085       .  S
C643        C644   1.401       .  A
C643        C648   1.411       .  A
C644        C645   1.400       .  A
C644        H659   1.085       .  S
C645        C646   1.416       .  A
C645        C649   1.444       .  S
C646        C647   1.406       .  A
C647        C648   1.404       .  A
C647        H660   1.084       .  S
C648        C650   1.443       .  S
C649        N653   1.157       .  T
C650        N654   1.157       .  T
C651        N656   1.157       .  T
C652        N655   1.157       .  T
C661        C662   1.413       .  A
C661        C666   1.403       .  A
C661        C675   1.444       .  S
C662        C663   1.406       .  A
C662        C667   1.495       .  S
C663        C664   1.405       .  A
C663        H682   1.084       .  S
C664        C665   1.414       .  A
C664        C676   1.444       .  S
C665        C666   1.404       .  A
C666        H681   1.085       .  S
C667        C668   1.403       .  A
C667        C672   1.411       .  A
C668        C669   1.403       .  A
C668        H683   1.085       .  S
C669        C670   1.421       .  A
C669        C673   1.444       .  S
C670        C671   1.411       .  A
C671        C672   1.406       .  A
C671        H684   1.084       .  S
C672        C674   1.444       .  S
C673        N677   1.157       .  T
C674        N678   1.157       .  T
C675        N680   1.157       .  T
C676        N679   1.157       .  T
C685        C930   1.414   1_455  A
C685        C690   1.404       .  A
C686        C929   1.415   1_655  A
C686        C687   1.405       .  A
C686        C691   1.500       .  S
C687        C688   1.403       .  A
C687        H706   1.085       .  S
C688        C689   1.416       .  A
C688        C700   1.444       .  S
C689        C934   1.406   1_655  A
C690        C933   1.405   1_455  A
C691        C696   1.414       .  A
C692        C693   1.405       .  A
C692        H707   1.084       .  S
C693        C697   1.443       .  S
C694        C695   1.404       .  A
C695        C696   1.402       .  A
C695        H708   1.085       .  S
C696        C698   1.444       .  S
C697        N701   1.157       .  T
C698        N702   1.157       .  T
C699        N704   1.157       .  T
C700        N703   1.157       .  T
C709        C710   1.413       .  A
C709        C714   1.400       .  A
C709        C723   1.445       .  S
C710        C715   1.489       .  S
C711        C712   1.401       .  A
C711        H974   1.085       .  S
C712        C968   1.444       .  S
C713        C714   1.405       .  A
C714        H729   1.085       .  S
C715        C716   1.402       .  A
C715        C964   1.411       .  A
C716        C717   1.399       .  A
C716        H731   1.085       .  S
C717        C718   1.420       .  A
C717        C721   1.445       .  S
C718        C963   1.409       .  A
C719        C962   1.404       .  A
C719        C720   1.402       .  A
C719        H732   1.085   1_565  S
C720        C959   1.412       .  A
C720        C722   1.444   1_565  S
C721        N725   1.157       .  T
C722        N726   1.157       .  T
C723        N728   1.157       .  T
C724        C956   1.444       .  S
C724        N727   1.157       .  T
H730        C955   1.085       .  S
N733        C737   1.368       .  A
N733        C734   1.367       .  A
N733        N807   1.441   1_655  S
C734        C735   1.380       .  A
C734        C779   1.461       .  S
C735        C736   1.358       .  A
C735        H738   1.083       .  S
C736        C737   1.380       .  A
C736        H739   1.082       .  S
C737        C853   1.467       .  S
N740        C744   1.368       .  A
N740        C741   1.370       .  A
C741        C742   1.386       .  A
C741        C805   1.464       .  S
C742        C743   1.357       .  A
C742        H745   1.084       .  S
C743        C744   1.382       .  A
C743        H746   1.083       .  S
C744        C879   1.477       .  S
N747        C751   1.370       .  A
N747        C748   1.368       .  A
C748        C749   1.380       .  A
C748        C855   1.468       .  S
C749        C750   1.357       .  A
C749        H752   1.083       .  S
C750        C751   1.379       .  A
C750        H753   1.083       .  S
C751        C777   1.466       .  S
N754        C758   1.362       .  A
N754        C755   1.361       .  A
C755        C756   1.379       .  A
C755        C876   1.496       .  S
C756        C757   1.371       .  A
C756        H759   1.082       .  S
C757        C758   1.389       .  A
C757        H760   1.083   1_565  S
C758        C799   1.492       .  S
O761        C777   1.278   1_556  A
O761       Zn767   2.037       .  S
C762        C933   1.489       .  S
C762        O778   1.281       .  A
O763       Cd770   2.083   1_556  S
O764       Cd773   2.105       .  S
O765        C779   1.278       .  A
O765       Cd769   2.073   1_556  S
O766        C777   1.275   1_545  A
Zn767       O778   2.026       .  S
Zn767       O780   2.001       .  S
Zn767       O772   1.904       .  S
O768        C779   1.275   1_455  A
Cd770       O774   2.067       .  S
Cd770       O783   2.065       .  S
O771        C781   1.280   1_545  A
C776        C808   1.459       .  S
C776        O780   1.272       .  A
C781        C957   1.494       .  S
C782        C825   1.471       .  S
C782        O783   1.275       .  A
O784        C800   1.266       .  A
O784       Zn790   1.975       .  S
C785        C938   1.486       .  S
C785        O801   1.273       .  A
O786        C799   1.278   1_545  A
O787        C805   1.275   1_455  A
O788        C802   1.280       .  A
O788       Cd792   2.119       .  S
O789       Cd792   2.091       .  S
Zn790       O801   2.021       .  S
Zn790       O803   1.972       .  S
Zn790       O795   1.907       .  S
O791       Cd796   2.067       .  S
Cd792       O794   2.065       .  S
Cd793       O806   2.092       .  S
O797        C804   1.281   1_545  A
C799        O803   1.269       .  A
C800        C815   1.450       .  S
C802        C832   1.486       .  S
C804        C962   1.478       .  S
C805        O806   1.281       .  A
N807        C808   1.367   1_455  A
C809        C810   1.358       .  A
C809        H812   1.084       .  S
C810        C811   1.380       .  A
C810        H813   1.084       .  S
C811        C850   1.464       .  S
N814        C818   1.366       .  A
C816        C817   1.355       .  A
C816        H819   1.084       .  S
C817        C818   1.385       .  A
C817        H820   1.083       .  S
C818        C874   1.475       .  S
N821        C822   1.371       .  A
C822        C823   1.379       .  A
C822        C836   1.465       .  S
C823        C824   1.359       .  A
C823        H826   1.083       .  S
C824        H827   1.083       .  S
N828        C829   1.365       .  A
C829        C830   1.382       .  A
C829        C873   1.501       .  S
C830        C831   1.375       .  A
C830        H833   1.083       .  S
C831        H834   1.083       .  S
O835        C851   1.276       .  A
O835       Zn841   2.007       .  S
C836        O852   1.274   1_554  A
C836        O849   1.278       .  A
O837        C850   1.279   1_554  A
O837       Cd844   2.092       .  S
O838        C856   1.282       .  A
O838       Cd847   2.091       .  S
O839        C853   1.274       .  A
O839       Cd843   2.051       .  S
O840        C851   1.281       .  A
O840       Cd843   2.090       .  S
Zn841       O852   2.007       .  S
Zn841       O854   1.986       .  S
Zn841       O846   1.905       .  S
O842        C853   1.281       .  A
O842       Cd847   2.103   1_556  S
Cd843       O845   2.094       .  S
Cd843       O846   1.970       .  S
Cd844       O848   2.054       .  S
Cd844       O857   2.084       .  S
Cd844       O846   1.972   1_554  S
O845        C855   1.279   1_556  A
O846       Cd847   1.968   1_556  S
Cd847       O849   2.082       .  S
O848        C855   1.273       .  A
C850        O854   1.271       .  A
C851        C885   1.476       .  S
C856        C909   1.495       .  S
C856        O857   1.282       .  A
O858        C874   1.284       .  A
O858       Zn864   2.101       .  S
C859        C914   1.506       .  S
C859        O875   1.281       .  A
C859        O872   1.286       .  A
O860        C873   1.271       .  A
O860       Cd867   2.084       .  S
O861        C879   1.288       .  A
O861       Cd870   2.156       .  S
O862        C876   1.271       .  A
O862       Cd866   2.058       .  S
O863        C874   1.266       .  A
O863       Cd866   1.981       .  S
Zn864       O875   2.037       .  S
Zn864       O877   2.068       .  S
Zn864       O869   1.938       .  S
O865        C876   1.286       .  A
O865       Cd870   2.162       .  S
Cd866       O868   2.056       .  S
Cd866       O869   1.957       .  S
Cd867       O871   2.088       .  S
Cd867       O880   1.994       .  S
Cd867       O869   1.988       .  S
O868        C878   1.273       .  A
O869       Cd870   2.014       .  S
Cd870       O872   2.114       .  S
O871        C878   1.277       .  A
C873        O877   1.281       .  A
C878        C890   1.485       .  S
C879        O880   1.268       .  A
C881        C882   1.410       .  A
C881        C886   1.401       .  A
C881        C895   1.443       .  S
C882        C883   1.404       .  A
C882        C887   1.486       .  S
C883        C884   1.403       .  A
C883        H902   1.084       .  S
C884        C885   1.409       .  A
C884        C896   1.442       .  S
C885        C886   1.404       .  A
C886        H901   1.084       .  S
C887        C888   1.401       .  A
C887        C892   1.410       .  A
C888        C889   1.400       .  A
C888        H903   1.085       .  S
C889        C890   1.416       .  A
C889        C893   1.444       .  S
C890        C891   1.406       .  A
C891        C892   1.404       .  A
C891        H904   1.085       .  S
C892        C894   1.442       .  S
C893        N897   1.157       .  T
C894        N898   1.157       .  T
C895        N900   1.157       .  T
C896        N899   1.157       .  T
C905        C906   1.411       .  A
C905        C910   1.405       .  A
C905        C919   1.444       .  S
C906        C907   1.404       .  A
C906        C911   1.495       .  S
C907        C908   1.406       .  A
C907        H926   1.085       .  S
C908        C909   1.417       .  A
C908        C920   1.444       .  S
C909        C910   1.408       .  A
C910        H925   1.084       .  S
C911        C912   1.400       .  A
C911        C916   1.410       .  A
C912        C913   1.403       .  A
C912        H927   1.085       .  S
C913        C914   1.424       .  A
C913        C917   1.444       .  S
C914        C915   1.412       .  A
C915        C916   1.408       .  A
C915        H928   1.084       .  S
C916        C918   1.443       .  S
C917        N921   1.157       .  T
C918        N922   1.157       .  T
C919        N924   1.157       .  T
C920        N923   1.157       .  T
C929        C934   1.407       .  A
C930        C931   1.405       .  A
C930        C935   1.497       .  S
C931        C932   1.403       .  A
C931        H950   1.085       .  S
C932        C933   1.415       .  A
C932        C944   1.444       .  S
C935        C940   1.414       .  A
C936        C937   1.404       .  A
C936        H951   1.085       .  S
C937        C941   1.443       .  S
C938        C939   1.405       .  A
C939        C940   1.401       .  A
C939        H952   1.085       .  S
C940        C942   1.444       .  S
C941        N945   1.157       .  T
C942        N946   1.157       .  T
C943        N948   1.157       .  T
C944        N947   1.157       .  T
C953        C954   1.409       .  A
C953        C958   1.400       .  A
C953        C967   1.445       .  S
C954        C959   1.485       .  S
C955        C956   1.402       .  A
C957        C958   1.411       .  A
C958        H973   1.084       .  S
C959        C960   1.401       .  A
C960        C961   1.396       .  A
C960        H975   1.085   1_655  S
C961        C962   1.416       .  A
C961        C965   1.446   1_655  S
C963        C964   1.401       .  A
C963        H976   1.084       .  S
C964        C966   1.445       .  S
C965        N969   1.157       .  T
C966        N970   1.157       .  T
C967        N972   1.157       .  T
C968        N971   1.157       .  T
