geometry optimzed in LAMMPS
_audit_creation_date              2020-11-30 
_audit_creation_method            'lammps2cif' 
_symmetry_space_group_name_H-M    'P1' 
_symmetry_Int_Tables_number       1 
_symmetry_cell_setting            triclinic 
loop_ 
_symmetry_equiv_pos_as_xyz 
  x,y,z 
_cell_length_a                    61.8384078 
_cell_length_b                    62.129317390750636 
_cell_length_c                    26.578501337744836 
_cell_angle_alpha                 90.00963822767322 
_cell_angle_beta                  90.18990069282152 
_cell_angle_gamma                 121.75726891408868 
loop_ 
_atom_site_label 
_atom_site_type_symbol 
_atom_site_fract_x 
_atom_site_fract_y 
_atom_site_fract_z 
_atom_site_charge 
C1          C  0.17584243  0.52736186  0.75522659     0.86400
C2          C  0.16281438  0.51084686  0.80190519    -0.53800
C3          C  0.16158740  0.48829300  0.80308942     0.09300
C4          C  0.17461304  0.48444837  0.75738367     0.20300
C5          C  0.20244802  0.53043889  0.75770702    -0.54500
C6          C  0.20197309  0.50802826  0.75751052     0.09400
C7          C  0.16279276  0.51003188  0.70949489    -0.54100
C8          C  0.16168261  0.48744825  0.71022277     0.10000
H9          H  0.15585061  0.51690670  0.83280110     0.14500
H10         H  0.17381746  0.46620768  0.75863152     0.00300
H11         H  0.22016074  0.54860076  0.76027848     0.14800
H12         H  0.15513151  0.51548655  0.67858900     0.14600
C13         C  0.34067554  0.52345083  0.74930600     0.86400
C14         C  0.33665960  0.50883866  0.69922002    -0.53800
C15         C  0.31399776  0.48581207  0.69586276     0.09300
C16         C  0.29716363  0.48000674  0.74321380     0.20300
C17         C  0.31696366  0.52547618  0.75023534    -0.54500
C18         C  0.29415158  0.50317379  0.74833535     0.09400
C19         C  0.33653321  0.50457802  0.79079034    -0.54100
C20         C  0.31401975  0.48204491  0.78836553     0.10000
H21         H  0.35021599  0.51638498  0.66858392     0.14500
H22         H  0.27894898  0.46152651  0.74135919     0.00300
H23         H  0.31806269  0.54385400  0.75020668     0.14800
H24         H  0.35028486  0.50899884  0.82066362     0.14600
C25         C  0.17263118  0.62242533  0.75458874     0.86400
C26         C  0.15927477  0.62415974  0.70791098    -0.53800
C27         C  0.15753647  0.64495886  0.70574715     0.09300
C28         C  0.16981367  0.66303767  0.75196654     0.20300
C29         C  0.19866929  0.64784419  0.75663271    -0.54500
C30         C  0.19756445  0.66937509  0.75470641     0.09400
C31         C  0.15852054  0.62529499  0.79959296    -0.54100
C32         C  0.15685645  0.64648883  0.79899265     0.10000
H33         H  0.15171639  0.60988000  0.67843766     0.14500
H34         H  0.16888927  0.68022187  0.75131470     0.00300
H35         H  0.21657788  0.64876133  0.76082226     0.14800
H36         H  0.15089954  0.61178353  0.83023444     0.14600
C37         C  0.34078151  0.79390116  0.75146242     0.86400
C38         C  0.33834591  0.80590173  0.80074959    -0.53800
C39         C  0.31701268  0.80753646  0.80398193     0.09300
C40         C  0.29949424  0.79581391  0.75703010     0.20300
C41         C  0.31586064  0.76780485  0.75145087    -0.54500
C42         C  0.29404902  0.76834922  0.75380073     0.09400
C43         C  0.33775876  0.80862194  0.70870387    -0.54100
C44         C  0.31650946  0.80987945  0.71116604     0.10000
H45         H  0.35214354  0.81187222  0.83105080     0.14500
H46         H  0.28227222  0.79704785  0.75803494     0.00300
H47         H  0.31534296  0.75010424  0.75230829     0.14800
H48         H  0.35147652  0.81739287  0.67852247     0.14600
C49         C  0.43777649  0.62403654  0.76653707     0.86400
C50         C  0.45414732  0.62934855  0.81371244    -0.53800
C51         C  0.47627408  0.65239959  0.81443430     0.09300
C52         C  0.47986312  0.66882605  0.76768313     0.20300
C53         C  0.43368649  0.64659588  0.76272337    -0.54500
C54         C  0.45556878  0.67019245  0.76431416     0.09400
C55         C  0.45583896  0.62912849  0.72217816    -0.54100
C56         C  0.47798378  0.65227532  0.72223831     0.10000
H57         H  0.44906853  0.61547097  0.84338850     0.14500
H58         H  0.49757140  0.68775430  0.76893338     0.00300
H59         H  0.41507509  0.64412415  0.75813331     0.14800
H60         H  0.45112460  0.61576998  0.69174802     0.14600
C61         C  0.43627687  0.79166469  0.75501486     0.86400
C62         C  0.45537012  0.80660766  0.71323768    -0.53800
C63         C  0.47721253  0.80615474  0.71436508     0.09300
C64         C  0.47846137  0.79111982  0.75956819     0.20300
C65         C  0.43245007  0.76498458  0.75329547    -0.54500
C66         C  0.45428398  0.76442326  0.75516696     0.09400
C67         C  0.45166217  0.80265022  0.80442873    -0.54100
C68         C  0.47405991  0.80301603  0.80653542     0.10000
H69         H  0.45160468  0.81656506  0.68425418     0.14500
H70         H  0.49617141  0.79076094  0.76160987     0.00300
H71         H  0.41392092  0.74774661  0.75317884     0.14800
H72         H  0.44550759  0.80964757  0.83514140     0.14600
C73         C  0.52770367  0.17548865  0.26413071     0.86400
C74         C  0.51123970  0.16042279  0.21827939    -0.53800
C75         C  0.48832882  0.15858798  0.21481666     0.09300
C76         C  0.48393672  0.17276696  0.25719172     0.20300
C77         C  0.53003520  0.20129666  0.25651811    -0.54500
C78         C  0.50722793  0.20009103  0.25449890     0.09400
C79         C  0.51033423  0.16397623  0.31043178    -0.54100
C80         C  0.48719263  0.16198894  0.30711129     0.10000
H81         H  0.51764363  0.15267934  0.18941170     0.14500
H82         H  0.46536423  0.17128141  0.25337423     0.00300
H83         H  0.54796487  0.21912634  0.25243732     0.14800
H84         H  0.51622664  0.15811623  0.34350481     0.14600
C85         C  0.62478380  0.17574881  0.26270606     0.86400
C86         C  0.62862248  0.16158686  0.30553172    -0.53800
C87         C  0.65053790  0.16138258  0.30352459     0.09300
C88         C  0.66715348  0.17567514  0.25746863     0.20300
C89         C  0.64927733  0.20233700  0.26175347    -0.54500
C90         C  0.67150150  0.20260018  0.26001838     0.09400
C91         C  0.62751041  0.16360026  0.21398627    -0.54100
C92         C  0.64950269  0.16306356  0.21103230     0.10000
H93         H  0.61471122  0.15211874  0.33514265     0.14500
H94         H  0.68504156  0.17562685  0.25649731     0.00300
H95         H  0.64921145  0.21970785  0.25952444     0.14800
H96         H  0.61321245  0.15608072  0.18440240     0.14600
C97         C  0.79438727  0.34613157  0.23755842     0.86400
C98         C  0.80698648  0.34097670  0.19327715    -0.53800
C99         C  0.80899817  0.32015662  0.19813883     0.09300
C100        C  0.79687435  0.30542421  0.24752609     0.20300
C101        C  0.76819265  0.32125367  0.24309438    -0.54500
C102        C  0.76911858  0.29965017  0.24704270     0.09400
C103        C  0.80832631  0.34564887  0.28538522    -0.54100
C104        C  0.81031393  0.32495072  0.29028268     0.10000
H105        H  0.81352531  0.35296501  0.16018952     0.14500
H106        H  0.79847213  0.28861761  0.25253035     0.00300
H107        H  0.75036603  0.32061470  0.24468059     0.14800
H108        H  0.81540537  0.36017174  0.31427808     0.14600
C109        C  0.79274002  0.44167434  0.22888181     0.86400
C110        C  0.80745987  0.45927919  0.27351046    -0.53800
C111        C  0.80836043  0.48166980  0.27448342     0.09300
C112        C  0.79338170  0.48427219  0.23064333     0.20300
C113        C  0.76612642  0.43828249  0.23488986    -0.54500
C114        C  0.76622345  0.46053487  0.23495230     0.09400
C115        C  0.80381949  0.45792816  0.18153821    -0.54100
C116        C  0.80460753  0.48030785  0.18203943     0.10000
H117        H  0.81567168  0.45400928  0.30355176     0.14500
H118        H  0.79395977  0.50241092  0.23125101     0.00300
H119        H  0.74879228  0.42002318  0.23976265     0.14800
H120        H  0.81070888  0.45210421  0.14998343     0.14600
C121        C  0.62571462  0.44133328  0.26296513     0.86400
C122        C  0.62727626  0.45561168  0.21425639    -0.53800
C123        C  0.64960265  0.47835580  0.20842772     0.09300
C124        C  0.66894899  0.48432533  0.25149639     0.20300
C125        C  0.64907804  0.43877053  0.25861931    -0.54500
C126        C  0.67176699  0.46097812  0.25323931     0.09400
C127        C  0.63196164  0.46042205  0.30525229    -0.54100
C128        C  0.65453633  0.48286251  0.30036064     0.10000
H129        H  0.61209807  0.44839300  0.18657926     0.14500
H130        H  0.68732512  0.50242186  0.24652687     0.00300
H131        H  0.64782244  0.42070623  0.25781392     0.14800
H132        H  0.61928468  0.45638797  0.33690871     0.14600
C133        C  0.52965939  0.34161755  0.26343821     0.86400
C134        C  0.51007955  0.33614593  0.30474966    -0.53800
C135        C  0.48742053  0.31357868  0.30062856     0.09300
C136        C  0.48594018  0.29904818  0.25228035     0.20300
C137        C  0.53147728  0.31759835  0.26087642    -0.54500
C138        C  0.50849190  0.29508991  0.25615371     0.09400
C139        C  0.51609135  0.33972513  0.21388877    -0.54100
C140        C  0.49300028  0.31821825  0.20834352     0.10000
H141        H  0.51409647  0.34942851  0.33515144     0.14500
H142        H  0.46777234  0.28097258  0.24810922     0.00300
H143        H  0.54925698  0.31810616  0.26041955     0.14800
H144        H  0.52402001  0.35434229  0.18518077     0.14600
O145        O  0.40359636  0.09877755  0.89020179    -0.57900
C146        C  0.41653820  0.11277873  0.04834255     0.74700
O147        O  0.35117101  0.10856562  0.98943476    -0.59000
C148        C  0.38433868  0.08955586  0.86134389     0.74700
C149        C  0.34718203  0.03856148  0.99713208     0.77100
Cd150      Cd  0.37862767  0.09153151  0.96917174     1.37500
O151        O  0.42148867  0.10647620  0.00646785    -0.57900
O152        O  0.37094530  0.04952427  0.99058893    -0.56700
C153        C  0.36735991  0.13064723  0.97396214     0.77100
O154        O  0.33764522  0.05218798  0.99195584    -0.59100
O155        O  0.39444421  0.10894839  0.05283066    -0.57500
O156        O  0.36304550  0.08099107  0.88241100    -0.57500
O157        O  0.38758647  0.13396842  0.95488272    -0.56700
O158        O  0.29688222  0.87323674  0.12250154    -0.57900
C159        C  0.29332301  0.85587964  0.96689754     0.74700
O160        O  0.23123786  0.85151354  0.01318374    -0.59000
C161        C  0.28204851  0.87562119  0.15180407     0.74700
C162        C  0.29587799  0.93012855  0.02808277     0.77100
Cd163      Cd  0.27623953  0.87656393  0.04426213     1.37500
O164        O  0.30333905  0.86091440  0.01047161    -0.57900
O165        O  0.31009126  0.92131317  0.03392906    -0.56700
C166        C  0.22551810  0.83304498  0.04229223     0.77100
O167        O  0.27215608  0.91397966  0.02721639    -0.59100
O168        O  0.27708230  0.86196808  0.95869038    -0.57500
O169        O  0.26601080  0.87964066  0.13121706    -0.57500
O170        O  0.24245058  0.83617134  0.07320374    -0.56700
O171        O  0.87213557  0.30006382  0.89309803    -0.57900
C172        C  0.85966044  0.29445766  0.04522495     0.74700
O173        O  0.85268708  0.23296975  0.99940314    -0.59000
C174        C  0.87187215  0.28539442  0.85943669     0.74700
C175        C  0.93203614  0.29513156  0.97426297     0.77100
Cd176      Cd  0.87787578  0.27697148  0.96393430     1.37500
O177        O  0.86353023  0.30418644  0.00175292    -0.57900
O178        O  0.92396571  0.30967165  0.96507567    -0.56700
C179        C  0.83467910  0.22567443  0.96791367     0.77100
O180        O  0.91514700  0.27184071  0.97830149    -0.59100
O181        O  0.86588670  0.27829224  0.05174123    -0.57500
O182        O  0.87516727  0.26794441  0.87427429    -0.57500
O183        O  0.83828420  0.24109375  0.93335500    -0.56700
O184        O  0.10557284  0.40727778  0.11917429    -0.57900
C185        C  0.11728366  0.41652236  0.96878999     0.74700
O186        O  0.10842466  0.34868946  0.02114540    -0.59000
C187        C  0.09315664  0.38992948  0.15106093     0.74700
C188        C  0.04042139  0.34634041  0.01530120     0.77100
Cd189      Cd  0.09392146  0.37791976  0.04572242     1.37500
O190        O  0.10778721  0.42004677  0.00779125    -0.57900
O191        O  0.05261697  0.37025762  0.01359370    -0.56700
C192        C  0.12916429  0.36062543  0.04550789     0.77100
O193        O  0.05295420  0.33668433  0.03021439    -0.59100
O194        O  0.11631669  0.39571995  0.96631512    -0.57500
O195        O  0.08099902  0.36752277  0.13423527    -0.57500
O196        O  0.13282974  0.37950207  0.07079505    -0.56700
O197        O  0.65950159  0.10578595  0.00946222    -0.57900
C198        C  0.67671197  0.09106650  0.86589466     0.74700
O199        O  0.73023366  0.11253747  0.00500288    -0.59000
C200        C  0.67138659  0.11233386  0.05112683     0.74700
C201        C  0.66374312  0.03559213  0.99397770     0.77100
Cd202      Cd  0.68506969  0.08912744  0.97304006     1.37500
O203        O  0.66291447  0.09368765  0.89760035    -0.57900
O204        O  0.65003821  0.04483629  0.98644870    -0.56700
C205        C  0.73722716  0.13062283  0.97419703     0.77100
O206        O  0.68758847  0.05104579  0.99292353    -0.59100
O207        O  0.69272399  0.08624474  0.88375353    -0.57500
O208        O  0.68831075  0.10701953  0.05712899    -0.57500
O209        O  0.72098494  0.12761029  0.94162341    -0.56700
O210        O  0.54092028  0.85936821  0.01113196    -0.57900
C211        C  0.56605259  0.87218284  0.15495229     0.74700
O212        O  0.58211230  0.83573043  0.08152993    -0.59000
C213        C  0.54541046  0.85019342  0.97285005     0.74700
C214        C  0.61322160  0.92736787  0.02952139     0.77100
Cd215      Cd  0.58224003  0.87339721  0.05280562     1.37500
O216        O  0.54996831  0.85867339  0.12141176    -0.57900
O217        O  0.58954249  0.91412637  0.02128469    -0.56700
C218        C  0.60033284  0.83866480  0.05476906     0.77100
O219        O  0.62319943  0.91563871  0.04732148    -0.59100
O220        O  0.58881918  0.88638007  0.14081227    -0.57500
O221        O  0.56680309  0.85216638  0.97133640    -0.57500
O222        O  0.61162102  0.85873436  0.02871266    -0.56700
O223        O  0.09467294  0.66507147  0.11819000    -0.57900
C224        C  0.10861394  0.66842620  0.96421378     0.74700
O225        O  0.05323697  0.69186830  0.01949658    -0.59000
C226        C  0.08786622  0.67581876  0.14940829     0.74700
C227        C  0.13048478  0.73612492  0.04268770     0.77100
Cd228      Cd  0.08817179  0.68502553  0.04256854     1.37500
O229        O  0.09842547  0.65472101  0.00277214    -0.57900
O230        O  0.12892880  0.71906919  0.07104238    -0.56700
C231        C  0.03671641  0.66875413  0.01169829     0.77100
O232        O  0.11105657  0.73017499  0.01603902    -0.59100
O233        O  0.10888392  0.68886337  0.96269203    -0.57500
O234        O  0.07975828  0.68910930  0.13122251    -0.57500
O235        O  0.04387897  0.65328258  0.01874217    -0.56700
O236        O  0.84438475  0.54972987  0.97534454    -0.57900
C237        C  0.87445583  0.58277435  0.84110483     0.74700
O238        O  0.84438760  0.60188559  0.91589148    -0.59000
C239        C  0.85224695  0.55368888  0.02048564     0.74700
C240        C  0.93008423  0.62361758  0.96406005     0.77100
Cd241      Cd  0.87597080  0.59343105  0.94682387     1.37500
O242        O  0.87019232  0.56580252  0.87313903    -0.57900
O243        O  0.91801771  0.59990405  0.95764632    -0.56700
C244        C  0.83863782  0.60711954  0.95763414     0.77100
O245        O  0.91695525  0.63389417  0.96336224    -0.59100
O246        O  0.88032211  0.60419926  0.85822906    -0.57500
O247        O  0.87158375  0.57514636  0.03035512    -0.57500
O248        O  0.85333909  0.61061223  0.99416526    -0.56700
O249        O  0.67482319  0.56103003  0.89045139    -0.57900
C250        C  0.66766855  0.54526247  0.04114025     0.74700
O251        O  0.73737489  0.61636849  0.96827003    -0.59000
C252        C  0.68885446  0.58000171  0.86273575     0.74700
C253        C  0.66703486  0.61435703  0.99342872     0.77100
Cd254      Cd  0.69024329  0.58574028  0.97033519     1.37500
O255        O  0.66491509  0.54044776  0.99430452    -0.57900
O256        O  0.65742763  0.59616452  0.96238638    -0.56700
C257        C  0.74196235  0.59940758  0.98022883     0.77100
O258        O  0.68781506  0.61955186  0.01377847    -0.59100
O259        O  0.67865599  0.56825502  0.05422127    -0.57500
O260        O  0.70246530  0.60099439  0.88488689    -0.57500
O261        O  0.72323937  0.57833780  0.99338102    -0.56700
O262        O  0.56206508  0.67554991  0.12020279    -0.57900
C263        C  0.55283966  0.67845348  0.96816693     0.74700
O264        O  0.58375164  0.73085093  0.06462976    -0.59000
C265        C  0.58001798  0.68528898  0.15223947     0.74700
C266        C  0.61714907  0.67047139  0.02952296     0.77100
Cd267      Cd  0.59004959  0.69621303  0.04724842     1.37500
O268        O  0.54641653  0.67246683  0.01359007    -0.57900
O269        O  0.59662976  0.66082440  0.05392608    -0.56700
C270        C  0.60487606  0.74883648  0.04916732     0.77100
O271        O  0.62571631  0.69272364  0.01313401    -0.59100
O272        O  0.57637394  0.69125339  0.95881273    -0.57500
O273        O  0.60233264  0.69981577  0.13559514    -0.57500
O274        O  0.62047802  0.74303450  0.03300738    -0.56700
O275        O  0.41002711  0.30150852  0.88881797    -0.57900
C276        C  0.42434928  0.29562492  0.04114224     0.74700
O277        O  0.34321281  0.27083969  0.97035561    -0.59000
C278        C  0.39349925  0.28612237  0.85771013     0.74700
C279        C  0.37210883  0.22461150  0.97415756     0.77100
Cd280      Cd  0.38573971  0.27594737  0.96398121     1.37500
O281        O  0.43022831  0.29996475  0.99500944    -0.57900
O282        O  0.39257339  0.24128585  0.95367600    -0.56700
C283        C  0.35165195  0.29392078  0.97969328     0.77100
O284        O  0.35727785  0.23139333  0.99000875    -0.59100
O285        O  0.40084784  0.28334017  0.05122308    -0.57500
O286        O  0.37473692  0.26628576  0.87576572    -0.57500
O287        O  0.37551560  0.30801565  0.98484311    -0.56700
O288        O  0.29846055  0.41404787  0.99034011    -0.57900
C289        C  0.28521210  0.38312648  0.13328952     0.74700
O290        O  0.22503671  0.34196818  0.01741826    -0.59000
C291        C  0.28734252  0.40808367  0.94798164     0.74700
C292        C  0.29300023  0.34102890  0.00659821     0.77100
Cd293      Cd  0.27164510  0.37165889  0.02912182     1.37500
O294        O  0.29592400  0.40042484  0.10048203    -0.57900
O295        O  0.30583522  0.36329381  0.02383853    -0.56700
C296        C  0.21925340  0.35661493  0.03839170     0.77100
O297        O  0.26946622  0.33211071  0.99986495    -0.59100
O298        O  0.26877355  0.36124923  0.11738062    -0.57500
O299        O  0.26959178  0.38524645  0.94280721    -0.57500
O300        O  0.23737598  0.37720684  0.05592097    -0.56700
O301        O  0.41474985  0.11057273  0.50827350    -0.57900
C302        C  0.37945680  0.08976149  0.64443456     0.74700
O303        O  0.34887401  0.11337511  0.50659515    -0.59000
C304        C  0.40996220  0.11468470  0.46412467     0.74700
C305        C  0.34088666  0.03860388  0.51601903     0.77100
Cd306      Cd  0.37042332  0.09150492  0.53908966     1.37500
O307        O  0.39785166  0.10007878  0.61362716    -0.57900
O308        O  0.36447215  0.05042892  0.52499340    -0.56700
C309        C  0.35757886  0.12942242  0.54214457     0.77100
O310        O  0.33028705  0.05139008  0.51694852    -0.59100
O311        O  0.35728635  0.08003399  0.62609059    -0.57500
O312        O  0.38715631  0.10783229  0.45482057    -0.57500
O313        O  0.36890343  0.12560048  0.57726494    -0.56700
O314        O  0.30077877  0.86316612  0.51107667    -0.57900
C315        C  0.27960379  0.87457961  0.36926624     0.74700
O316        O  0.22936123  0.86180430  0.50430068    -0.59000
C317        C  0.29296422  0.86073022  0.55600962     0.74700
C318        C  0.29421954  0.93098954  0.49048503     0.77100
Cd319      Cd  0.27366310  0.87793452  0.47671402     1.37500
O320        O  0.29360237  0.87184629  0.40025666    -0.57900
O321        O  0.30814597  0.92168261  0.49141110    -0.56700
C322        C  0.22196597  0.83903835  0.49383360     0.77100
O323        O  0.27059900  0.91558505  0.48475858    -0.59100
O324        O  0.26357981  0.87901297  0.38799896    -0.57500
O325        O  0.27785159  0.86818323  0.56486189    -0.57500
O326        O  0.23801039  0.83491374  0.47403534    -0.56700
O327        O  0.86020837  0.31137252  0.50156190    -0.57900
C328        C  0.86991442  0.28764400  0.64374808     0.74700
O329        O  0.85386076  0.23622688  0.51917225    -0.59000
C330        C  0.85584390  0.30220719  0.45746649     0.74700
C331        C  0.92575258  0.30077014  0.51937982     0.77100
Cd332      Cd  0.87246543  0.28193639  0.53652559     1.37500
O333        O  0.86873821  0.30280066  0.61356961    -0.57900
O334        O  0.91795041  0.31495654  0.53348655    -0.56700
C335        C  0.83138734  0.23024288  0.52984738     0.77100
O336        O  0.90888812  0.27775973  0.51164653    -0.59100
O337        O  0.87287171  0.27078884  0.62438398    -0.57500
O338        O  0.86003711  0.28462027  0.45006212    -0.57500
O339        O  0.82831451  0.24795079  0.54354313    -0.56700
O340        O  0.10415586  0.41782411  0.51041170    -0.57900
C341        C  0.08865719  0.39059004  0.36592805     0.74700
O342        O  0.10206718  0.34583656  0.48698065    -0.59000
C343        C  0.11048487  0.41207692  0.55128669     0.74700
C344        C  0.03395177  0.34692291  0.49147339     0.77100
Cd345      Cd  0.08774442  0.37624141  0.46965851     1.37500
O346        O  0.10196199  0.40706105  0.39899755    -0.57900
O347        O  0.04711676  0.37076325  0.49545537    -0.56700
C348        C  0.12262759  0.35872961  0.46261911     0.77100
O349        O  0.04569210  0.33607598  0.47899844    -0.59100
O350        O  0.07416399  0.36819221  0.38144446    -0.57500
O351        O  0.10576712  0.38969489  0.55491448    -0.57500
O352        O  0.12621703  0.37860153  0.44176339    -0.56700
O353        O  0.66544489  0.09546091  0.61673389    -0.57900
C354        C  0.67162773  0.10912137  0.46064625     0.74700
O355        O  0.73441777  0.11078473  0.52669933    -0.59000
C356        C  0.67901782  0.09295944  0.64926194     0.74700
C357        C  0.66857385  0.03746959  0.52615992     0.77100
Cd358      Cd  0.68791014  0.09059570  0.54323394     1.37500
O359        O  0.65942254  0.10221668  0.50169286    -0.57900
O360        O  0.65426045  0.04562766  0.53709407    -0.56700
C361        C  0.73926955  0.13279879  0.53764691     0.77100
O362        O  0.69206523  0.05387790  0.52178324    -0.59100
O363        O  0.68969010  0.10529637  0.45677534    -0.57500
O364        O  0.69563419  0.08881298  0.63255527    -0.57500
O365        O  0.72105448  0.13452806  0.55392279    -0.56700
O366        O  0.55375482  0.86446388  0.40259414    -0.57900
C367        C  0.54982899  0.85417816  0.55096531     0.74700
O368        O  0.61367506  0.85924438  0.49323897    -0.59000
C369        C  0.56995996  0.87443307  0.36765194     0.74700
C370        C  0.61807762  0.92955216  0.49353106     0.77100
Cd371      Cd  0.58593833  0.87590966  0.47009451     1.37500
O372        O  0.54520176  0.86297738  0.51217310    -0.57900
O373        O  0.59436846  0.91703636  0.50103349    -0.56700
C374        C  0.60067955  0.83878595  0.46862579     0.77100
O375        O  0.62753269  0.91725492  0.47632780    -0.59100
O376        O  0.57109957  0.85585916  0.55210276    -0.57500
O377        O  0.59314547  0.88557571  0.38027217    -0.57500
O378        O  0.58215619  0.83636518  0.44342695    -0.56700
O379        O  0.08678130  0.66511297  0.39796997    -0.57900
C380        C  0.11259946  0.67108996  0.54393764     0.74700
O381        O  0.10745486  0.73488510  0.50963955    -0.59000
C382        C  0.09405722  0.68250591  0.36554243     0.74700
C383        C  0.04015477  0.67527088  0.48674641     0.77100
Cd384      Cd  0.09334754  0.69265599  0.47212957     1.37500
O385        O  0.11444612  0.66916003  0.49692679    -0.57900
O386        O  0.04965796  0.66252476  0.50072964    -0.56700
C387        C  0.12983197  0.74491896  0.49274065     0.77100
O388        O  0.05526243  0.69644222  0.46663754    -0.59100
O389        O  0.10139737  0.68227123  0.55741131    -0.57500
O390        O  0.10148620  0.70438129  0.38227906    -0.57500
O391        O  0.13468930  0.73118619  0.46596230    -0.56700
O392        O  0.86902314  0.56383529  0.59374464    -0.57900
C393        C  0.85620568  0.55494974  0.43826800     0.74700
O394        O  0.86328121  0.62227537  0.50138574    -0.59000
C395        C  0.87346338  0.58096932  0.62537236     0.74700
C396        C  0.93132065  0.62322845  0.50598973     0.77100
Cd397      Cd  0.87699174  0.59170149  0.51952212     1.37500
O398        O  0.86133619  0.54947908  0.48081099    -0.57900
O399        O  0.92035227  0.59982245  0.51508121    -0.56700
C400        C  0.84030885  0.60657585  0.51307913     0.77100
O401        O  0.91720616  0.63221133  0.50097560    -0.59100
O402        O  0.86158033  0.57747481  0.43326926    -0.57500
O403        O  0.87967258  0.60238711  0.60793732    -0.57500
O404        O  0.83507703  0.58516209  0.52892227    -0.56700
O405        O  0.67942428  0.56807464  0.61516140    -0.57900
C406        C  0.67946732  0.55704844  0.45930455     0.74700
O407        O  0.69740297  0.63274679  0.51313859    -0.59000
C408        C  0.69302989  0.58589334  0.64569001     0.74700
C409        C  0.74902010  0.60746198  0.52430948     0.77100
Cd410      Cd  0.69759957  0.59423848  0.53840940     1.37500
O411        O  0.66922656  0.55131464  0.50245756    -0.57900
O412        O  0.73139648  0.58576478  0.53823165    -0.56700
C413        C  0.67357106  0.62258580  0.51780560     0.77100
O414        O  0.74344149  0.62431897  0.51919540    -0.59100
O415        O  0.69656612  0.58000680  0.45285126    -0.57500
O416        O  0.70817754  0.60733769  0.62654070    -0.57500
O417        O  0.66130168  0.59967614  0.53145950    -0.56700
O418        O  0.54425328  0.66633121  0.51514241    -0.57900
C419        C  0.57663829  0.68207815  0.36806400     0.74700
O420        O  0.61404123  0.73994504  0.49747199    -0.59000
C421        C  0.54999495  0.67894192  0.55581938     0.74700
C422        C  0.61716678  0.67282271  0.49402495     0.77100
Cd423      Cd  0.58637781  0.69435990  0.47381517     1.37500
O424        O  0.55821519  0.67438780  0.39851301    -0.57900
O425        O  0.59326823  0.66039989  0.49920668    -0.56700
C426        C  0.60160783  0.74687699  0.47112238     0.77100
O427        O  0.62725669  0.69602110  0.48302565    -0.59100
O428        O  0.59871962  0.69435654  0.38689185    -0.57500
O429        O  0.57236981  0.69804529  0.55797803    -0.57500
O430        O  0.58343674  0.72994002  0.44509085    -0.56700
O431        O  0.41835370  0.30130115  0.49874880    -0.57900
C432        C  0.38832352  0.28726360  0.64210955     0.74700
O433        O  0.33552922  0.27334811  0.51513659    -0.59000
C434        C  0.41289783  0.28719232  0.46038477     0.74700
C435        C  0.35940364  0.22315820  0.54389931     0.77100
Cd436      Cd  0.37560072  0.27525723  0.53786621     1.37500
O437        O  0.40544104  0.29883345  0.60905208    -0.57900
O438        O  0.37090290  0.23868005  0.57930070    -0.56700
C439        C  0.34551098  0.29712550  0.51499217     0.77100
O440        O  0.35188262  0.23074422  0.50738292    -0.59100
O441        O  0.36643026  0.27070384  0.62614115    -0.57500
O442        O  0.39060191  0.26808459  0.45854362    -0.57500
O443        O  0.36898604  0.31026792  0.52480607    -0.56700
O444        O  0.29286437  0.40265035  0.37933160    -0.57900
C445        C  0.28346220  0.41483651  0.52798152     0.74700
O446        O  0.22269597  0.34653070  0.47360475    -0.59000
C447        C  0.28198896  0.38463071  0.34790812     0.74700
C448        C  0.29114550  0.34814986  0.47875226     0.77100
Cd449      Cd  0.26793667  0.37636385  0.45225887     1.37500
O450        O  0.29219557  0.42048230  0.48365737    -0.57900
O451        O  0.30296166  0.37202181  0.48106775    -0.56700
C452        C  0.21486723  0.35921169  0.45124400     0.77100
O453        O  0.26778238  0.33688829  0.46721055    -0.59100
O454        O  0.26777991  0.39169123  0.53702302    -0.57500
O455        O  0.26484526  0.36343332  0.36493832    -0.57500
O456        O  0.23138047  0.37886533  0.42820956    -0.56700
C457        C  0.32763459  0.34253331  0.46251265    -0.01900
C458        C  0.30441854  0.33442738  0.48731771     0.07800
C459        C  0.29423809  0.31344407  0.51998424    -0.02000
C460        C  0.30736421  0.30084360  0.52832480    -0.02000
C461        C  0.33081321  0.30923730  0.50415883     0.07900
C462        C  0.34086437  0.33014091  0.47117750    -0.02200
Br463      Br  0.37242938  0.34150850  0.43600820    -0.00800
Br464      Br  0.34094983  0.36992488  0.41437628    -0.00900
Br465      Br  0.29394311  0.27324267  0.57578915    -0.00800
Br466      Br  0.26313753  0.30290396  0.55597100    -0.00800
C467        C  0.63719063  0.62459032  0.48162655    -0.01900
C468        C  0.66040114  0.63648139  0.50851411     0.07800
C469        C  0.66994663  0.66086670  0.52901626    -0.02000
C470        C  0.65600150  0.67287726  0.52405923    -0.02000
C471        C  0.63223503  0.66052002  0.49896850     0.07900
C472        C  0.62301039  0.63632152  0.47748571    -0.02200
Br473      Br  0.59125507  0.61911293  0.44051732    -0.00800
Br474      Br  0.62533849  0.59269875  0.44760550    -0.00900
Br475      Br  0.66890135  0.70559324  0.55498399    -0.00800
Br476      Br  0.70142380  0.67742217  0.56675658    -0.00800
C477        C  0.79933725  0.59629467  0.47511058    -0.01900
C478        C  0.81985695  0.61190990  0.50732492     0.07800
C479        C  0.81866555  0.62953132  0.53876604    -0.02000
C480        C  0.79589823  0.62956770  0.54186679    -0.02000
C481        C  0.77445762  0.61195323  0.51352899     0.07900
C482        C  0.77661122  0.59613697  0.47845570    -0.02200
Br483      Br  0.74819978  0.57371919  0.43557138    -0.00800
Br484      Br  0.80238306  0.57482445  0.42669306    -0.00900
Br485      Br  0.79335875  0.65201783  0.58818061    -0.00800
Br486      Br  0.84747698  0.65219882  0.58014930    -0.00800
C487        C  0.00119434  0.65659509  0.54033772    -0.01900
C488        C  0.01268801  0.66539893  0.49291313     0.07800
C489        C  0.99743890  0.66269280  0.45079640    -0.02000
C490        C  0.97073959  0.64912129  0.45518270    -0.02000
C491        C  0.95925913  0.63911695  0.50199434     0.07900
C492        C  0.97453918  0.64350116  0.54485967    -0.02200
Br493      Br  0.95887937  0.63173277  0.60989286    -0.00800
Br494      Br  0.02207757  0.66351811  0.59952689    -0.00900
Br495      Br  0.94972284  0.64249193  0.39637107    -0.00800
Br496      Br  0.01281181  0.67663573  0.38652090    -0.00800
C497        C  0.60861227  0.80784411  0.42503350    -0.01900
C498        C  0.60583901  0.81804999  0.47024353     0.07800
C499        C  0.60482304  0.80634192  0.51646580    -0.02000
C500        C  0.60531763  0.78389259  0.51718852    -0.02000
C501        C  0.60682603  0.77303553  0.47167857     0.07900
C502        C  0.60936718  0.78557607  0.42582161    -0.02200
Br503      Br  0.61384000  0.77213289  0.36387082    -0.00800
Br504      Br  0.61081062  0.82407229  0.36167345    -0.00900
Br505      Br  0.60119677  0.76667198  0.58021763    -0.00800
Br506      Br  0.59969720  0.81927808  0.57844040    -0.00800
C507        C  0.65948511  0.00057580  0.47190694    -0.01900
C508        C  0.65808573  0.01007435  0.51912734     0.07800
C509        C  0.64521521  0.99316636  0.55902612    -0.02000
C510        C  0.63250490  0.96682546  0.55096076    -0.02000
C511        C  0.63350210  0.95720813  0.50343750     0.07900
C512        C  0.64759703  0.97423641  0.46428874    -0.02200
Br513      Br  0.64906706  0.96157003  0.39890657    -0.00800
Br514      Br  0.67594589  0.02359936  0.41653410    -0.00900
Br515      Br  0.61385701  0.94395857  0.60537273    -0.00800
Br516      Br  0.64567667  0.00622731  0.62524987    -0.00800
C517        C  0.15318405  0.35311992  0.41178469    -0.01900
C518        C  0.14227641  0.35201248  0.45902730     0.07800
C519        C  0.15300401  0.34856031  0.50295500    -0.02000
C520        C  0.17592593  0.34883697  0.50008723    -0.02000
C521        C  0.18811725  0.35250076  0.45324998     0.07900
C522        C  0.17598625  0.35330134  0.40889770    -0.02200
Br523      Br  0.19072991  0.35483846  0.34398513    -0.00800
Br524      Br  0.13706894  0.35482073  0.35076513    -0.00900
Br525      Br  0.19184542  0.34694029  0.56121151    -0.00800
Br526      Br  0.13797997  0.34619005  0.56783415    -0.00800
C527        C  0.97022560  0.32375309  0.55326135    -0.01900
C528        C  0.95323760  0.31072578  0.51312477     0.07800
C529        C  0.96276321  0.30811552  0.46684408    -0.02000
C530        C  0.98919017  0.31937966  0.46015753    -0.02000
C531        C  0.00617094  0.33284171  0.49999402     0.07900
C532        C  0.99657328  0.33465022  0.54676563    -0.02200
Br533      Br  0.01958755  0.35169773  0.60234835    -0.00800
Br534      Br  0.95739544  0.32614171  0.61783808    -0.00900
Br535      Br  0.00223556  0.31808062  0.39513817    -0.00800
Br536      Br  0.93983083  0.29061770  0.41140542    -0.00800
C537        C  0.78575204  0.16070305  0.55838536    -0.01900
C538        C  0.76441099  0.15592095  0.52986027     0.07800
C539        C  0.76619635  0.17468596  0.49723877    -0.02000
C540        C  0.78844607  0.19882084  0.49625946    -0.02000
C541        C  0.80945893  0.20403349  0.52641447     0.07900
C542        C  0.80840552  0.18470986  0.55624612    -0.02200
Br543      Br  0.83715169  0.19177725  0.59753534    -0.00800
Br544      Br  0.78328146  0.13512471  0.60323933    -0.00900
Br545      Br  0.78993099  0.22488009  0.45392422    -0.00800
Br546      Br  0.73809876  0.16725451  0.45335119    -0.00800
C547        C  0.17501988  0.81512248  0.47850146    -0.01900
C548        C  0.19616641  0.81776524  0.50459515     0.07800
C549        C  0.19330044  0.79801267  0.53551283    -0.02000
C550        C  0.17014826  0.77469891  0.53585528    -0.02000
C551        C  0.15007355  0.77098421  0.50459458     0.07900
C552        C  0.15192572  0.79151408  0.47807970    -0.02200
Br553      Br  0.12367415  0.78658472  0.43784132    -0.00800
Br554      Br  0.17840639  0.84295904  0.43972183    -0.00900
Br555      Br  0.16616685  0.74726305  0.57715433    -0.00800
Br556      Br  0.22148434  0.80256784  0.57579796    -0.00800
C557        C  0.37995279  0.17598507  0.55172619    -0.01900
C558        C  0.35703792  0.15287972  0.54161888     0.07800
C559        C  0.33457614  0.15279807  0.53137620    -0.02000
C560        C  0.33492882  0.17570917  0.53270473    -0.02000
C561        C  0.35781462  0.19865492  0.54340650     0.07900
C562        C  0.38036284  0.19871361  0.55226244    -0.02200
Br563      Br  0.41265379  0.23020810  0.56193023    -0.00800
Br564      Br  0.41164996  0.17720477  0.56206463    -0.00900
Br565      Br  0.30393395  0.17550842  0.52254543    -0.00800
Br566      Br  0.30320360  0.12136377  0.51765581    -0.00800
C567        C  0.29437330  0.96796234  0.52869131    -0.01900
C568        C  0.30508693  0.95850067  0.49511820     0.07800
C569        C  0.32631653  0.97545008  0.46578163    -0.02000
C570        C  0.33708899  0.00167168  0.47080893    -0.02000
C571        C  0.32694336  0.01117867  0.50557826     0.07900
C572        C  0.30527651  0.99426724  0.53388784    -0.02200
Br573      Br  0.29158742  0.00696869  0.58264935    -0.00800
Br574      Br  0.26608981  0.94508213  0.57089344    -0.00900
Br575      Br  0.36542341  0.02459920  0.42864773    -0.00800
Br576      Br  0.34048017  0.96297348  0.41745377    -0.00800
C577        C  0.29277024  0.36947199  0.21611058    -0.01900
C578        C  0.29081095  0.38757755  0.18780942     0.07800
C579        C  0.29076644  0.40761266  0.21287916    -0.02000
C580        C  0.28908136  0.40744265  0.26582256    -0.02000
C581        C  0.28836029  0.38774693  0.29376777     0.07900
C582        C  0.29150399  0.36951442  0.26885591    -0.02200
Br583      Br  0.29394843  0.34432777  0.30673670    -0.00800
Br584      Br  0.29764207  0.34471573  0.18252207    -0.00900
Br585      Br  0.28488183  0.43263137  0.29917635    -0.00800
Br586      Br  0.29135125  0.43447085  0.17521593    -0.00800
C587        C  0.37438707  0.29051434  0.77902914    -0.01900
C588        C  0.39495672  0.29093978  0.80303142     0.07800
C589        C  0.41540612  0.29383088  0.77412902    -0.02000
C590        C  0.41431300  0.29428618  0.72102738    -0.02000
C591        C  0.39280757  0.29214088  0.69693527     0.07900
C592        C  0.37357688  0.29165965  0.72638070    -0.02200
Br593      Br  0.34609846  0.29311204  0.69488494    -0.00800
Br594      Br  0.34690214  0.28804047  0.81834576    -0.00900
Br595      Br  0.44138707  0.29585846  0.68203965    -0.00800
Br596      Br  0.44376730  0.29483666  0.80712180    -0.00800
C597        C  0.34265453  0.32786355  0.95996244    -0.01900
C598        C  0.33487375  0.30434221  0.98284670     0.07800
C599        C  0.31126350  0.29124426  0.00822647    -0.02000
C600        C  0.29659679  0.30248522  0.01370792    -0.02000
C601        C  0.30558629  0.32693181  0.99435602     0.07900
C602        C  0.32816298  0.33910194  0.96593945    -0.02200
Br603      Br  0.33882478  0.37095579  0.93311099    -0.00800
Br604      Br  0.37255824  0.34445691  0.91783266    -0.00900
Br605      Br  0.26490674  0.28488740  0.05003238    -0.00800
Br606      Br  0.29949025  0.25860956  0.03830033    -0.00800
C607        C  0.56082837  0.68813042  0.23280429    -0.01900
C608        C  0.57543475  0.68041264  0.20670185     0.07800
C609        C  0.58754320  0.67006059  0.23343394    -0.02000
C610        C  0.58644442  0.66895431  0.28633255    -0.02000
C611        C  0.57322619  0.67822361  0.31287845     0.07900
C612        C  0.55980964  0.68715590  0.28581112    -0.02200
Br613      Br  0.54230102  0.70068317  0.32115696    -0.00800
Br614      Br  0.54409469  0.70220062  0.19619697    -0.00900
Br615      Br  0.60330769  0.65487375  0.32227814    -0.00800
Br616      Br  0.60565093  0.65736350  0.19730860    -0.00800
C617        C  0.66687621  0.56701422  0.77863582    -0.01900
C618        C  0.68955236  0.57836817  0.80718757     0.07800
C619        C  0.71323401  0.59033548  0.78223541    -0.09200
C620        C  0.71423853  0.59183834  0.72937484    -0.02000
C621        C  0.69162579  0.58207112  0.70094890     0.07900
C622        C  0.66791667  0.56939910  0.72577511    -0.02200
Br623      Br  0.63683287  0.55740421  0.68818648    -0.00800
Br624      Br  0.63427841  0.54952762  0.81181561    -0.00900
Br625      Br  0.74675889  0.60662706  0.69604020    -0.00800
Br626      Br  0.74454660  0.60424668  0.82020534    -0.00800
C627        C  0.62767439  0.61593213  0.00699218    -0.01900
C628        C  0.65450063  0.62870505  0.00481005     0.07800
C629        C  0.66907005  0.65523406  0.01206081    -0.02000
C630        C  0.65696387  0.66879150  0.02109902    -0.02000
C631        C  0.63010751  0.65620661  0.02085201     0.07900
C632        C  0.61556239  0.62962505  0.01345235    -0.02200
Br633      Br  0.57882602  0.61149944  0.00902190    -0.00800
Br634      Br  0.60706490  0.57931365  0.00404016    -0.00900
Br635      Br  0.67763897  0.70452967  0.03625974    -0.00800
Br636      Br  0.70575712  0.67366293  0.00737115    -0.00800
C637        C  0.85453559  0.58211775  0.75913763    -0.01900
C638        C  0.87177520  0.57809916  0.78620957     0.07800
C639        C  0.88748743  0.57173927  0.76001764    -0.02000
C640        C  0.88716270  0.57115993  0.70688389    -0.02000
C641        C  0.87089214  0.57662006  0.68011783     0.07900
C642        C  0.85385142  0.58099562  0.70638311    -0.02200
Br643      Br  0.82929581  0.58524992  0.66968782    -0.00800
Br644      Br  0.83181569  0.58945131  0.79402137    -0.00900
Br645      Br  0.91016564  0.56465677  0.67079907    -0.00800
Br646      Br  0.91076812  0.56572859  0.79647134    -0.00800
C647        C  0.81283550  0.62475729  0.99145047    -0.01900
C648        C  0.81443369  0.60630466  0.96350240     0.07800
C649        C  0.79212265  0.58564411  0.94217970    -0.02000
C650        C  0.76877575  0.58404270  0.94693017    -0.02000
C651        C  0.76715791  0.60251466  0.97467237     0.07900
C652        C  0.78917449  0.62285478  0.99698005    -0.02200
Br653      Br  0.78666208  0.64732188  0.03701401    -0.00800
Br654      Br  0.84292844  0.65276393  0.02161659    -0.00900
Br655      Br  0.73908283  0.55658593  0.91341764    -0.00800
Br656      Br  0.79251991  0.55788692  0.90977910    -0.00800
C657        C  0.06791835  0.66015023  0.23384684    -0.01900
C658        C  0.08999103  0.67398380  0.20453136     0.07800
C659        C  0.11387351  0.68852486  0.22847477    -0.02000
C660        C  0.11539158  0.69079453  0.28139749    -0.02000
C661        C  0.09313527  0.67765126  0.31071171     0.07900
C662        C  0.06954921  0.66148819  0.28679728    -0.02200
Br663      Br  0.03914452  0.64225745  0.32633815    -0.00800
Br664      Br  0.03534358  0.63985481  0.20111114    -0.00900
Br665      Br  0.14795087  0.71196568  0.31380040    -0.00800
Br666      Br  0.14438893  0.70627957  0.18858189    -0.00800
C667        C  0.99930333  0.64293825  0.95480440    -0.01900
C668        C  0.01032098  0.65999570  0.99546701     0.07800
C669        C  0.99561945  0.66763826  0.02171094    -0.02000
C670        C  0.96950299  0.65645669  0.01054798    -0.02000
C671        C  0.95807947  0.63806553  0.97205197     0.07900
C672        C  0.97340773  0.63220600  0.94290753    -0.02200
Br673      Br  0.95935906  0.61021772  0.88502475    -0.00800
Br674      Br  0.01995643  0.63507131  0.91359042    -0.00900
Br675      Br  0.94922118  0.66506988  0.05097710    -0.00800
Br676      Br  0.01074847  0.69242510  0.07500076    -0.00800
C677        C  0.55199892  0.84923348  0.28887864    -0.01900
C678        C  0.56259066  0.87258900  0.31431559     0.07800
C679        C  0.56909730  0.89466380  0.28724551    -0.02000
C680        C  0.56696339  0.89375146  0.23449200    -0.02000
C681        C  0.55949555  0.87107554  0.20862070     0.07900
C682        C  0.55056830  0.84847571  0.23592265    -0.02200
Br683      Br  0.53881990  0.81695685  0.20094234    -0.00800
Br684      Br  0.54205879  0.81876646  0.32621887    -0.00900
Br685      Br  0.57436902  0.92351126  0.19722361    -0.00800
Br686      Br  0.58202216  0.92633270  0.32234339    -0.00800
C687        C  0.60854536  0.80877618  0.00635641    -0.01900
C688        C  0.60697577  0.81886819  0.05301174     0.07800
C689        C  0.60864559  0.80777444  0.09811646    -0.02000
C690        C  0.60998962  0.78583455  0.09661384    -0.02000
C691        C  0.61011304  0.77498927  0.05015239     0.07900
C692        C  0.61038674  0.78705371  0.00504260    -0.02200
Br693      Br  0.61093005  0.77242115  0.94135227    -0.00800
Br694      Br  0.60512762  0.82265703  0.94395623    -0.00900
Br695      Br  0.61093437  0.77000070  0.15842854    -0.00800
Br696      Br  0.60883751  0.82240858  0.16234681    -0.00800
C697        C  0.69809294  0.11155136  0.78501452    -0.01900
C698        C  0.67548874  0.09441893  0.81072785     0.07800
C699        C  0.65280908  0.07954754  0.78287230    -0.02000
C700        C  0.65336206  0.08012172  0.72959551    -0.02000
C701        C  0.67663557  0.09540874  0.70419400     0.07900
C702        C  0.69869735  0.11193280  0.73214540    -0.02200
Br703      Br  0.72991458  0.13557434  0.69781956    -0.00800
Br704      Br  0.72837806  0.13519376  0.82208599    -0.00900
Br705      Br  0.62264150  0.05872747  0.69166789    -0.00800
Br706      Br  0.62139758  0.05717297  0.81736151    -0.00800
C707        C  0.64391326  0.97258986  0.05668982    -0.01900
C708        C  0.62804007  0.95511277  0.01925722     0.07800
C709        C  0.62491448  0.96435921  0.97295106    -0.02000
C710        C  0.63670993  0.99062273  0.96481957    -0.02000
C711        C  0.65223871  0.00802205  0.00239675     0.07900
C712        C  0.65601074  0.99892788  0.04816264    -0.02200
Br713      Br  0.67629838  0.02259981  0.10059442    -0.00800
Br714      Br  0.64776831  0.96065663  0.12116459    -0.00900
Br715      Br  0.63195652  0.00284734  0.90144688    -0.00800
Br716      Br  0.60536192  0.94111235  0.91934748    -0.00800
C717        C  0.06819600  0.38683773  0.28243731    -0.01900
C718        C  0.09055388  0.39637795  0.31142692     0.07800
C719        C  0.11434498  0.40802773  0.28696010    -0.02000
C720        C  0.11541314  0.40737128  0.23395688    -0.02000
C721        C  0.09272268  0.39511169  0.20536147     0.07900
C722        C  0.06922197  0.38588093  0.22964407    -0.02200
Br723      Br  0.03836577  0.37196674  0.19038858    -0.00800
Br724      Br  0.03626316  0.37596295  0.31513523    -0.00900
Br725      Br  0.14786663  0.42131505  0.20106911    -0.00800
Br726      Br  0.14546389  0.42332230  0.32574370    -0.00800
C727        C  0.18043895  0.35030476  0.99543555    -0.01900
C728        C  0.19298513  0.35115875  0.04043172     0.07800
C729        C  0.18233409  0.35133588  0.08709264    -0.02000
C730        C  0.16023511  0.35253399  0.08874900    -0.02000
C731        C  0.14882393  0.35384761  0.04367691     0.07900
C732        C  0.15854522  0.35191665  0.99695687    -0.02200
Br733      Br  0.14405388  0.35475430  0.93470773    -0.00800
Br734      Br  0.19486894  0.34974972  0.93143789    -0.00900
Br735      Br  0.14589777  0.35288052  0.15298784    -0.00800
Br736      Br  0.19846082  0.35050536  0.14879137    -0.00800
C737        C  0.88428958  0.31071179  0.77933317    -0.01900
C738        C  0.86798394  0.28795519  0.80519084     0.07800
C739        C  0.84972521  0.26645987  0.77780449    -0.02000
C740        C  0.84938618  0.26702402  0.72491269    -0.02000
C741        C  0.86761790  0.28889228  0.69891688     0.07900
C742        C  0.88458664  0.31099310  0.72621089    -0.02200
Br743      Br  0.91000591  0.34083609  0.69114665    -0.00800
Br744      Br  0.90720909  0.34114307  0.81631947    -0.00900
Br745      Br  0.82373499  0.23777916  0.68791297    -0.00800
Br746      Br  0.82469098  0.23623809  0.81264543    -0.00800
C747        C  0.96878469  0.29912634  0.02428944    -0.01900
C748        C  0.95975380  0.30529021  0.98109930     0.07800
C749        C  0.97750767  0.32288983  0.94639768    -0.02000
C750        C  0.00384016  0.33585949  0.95694950    -0.02000
C751        C  0.01286403  0.33077406  0.00158570     0.07900
C752        C  0.99518169  0.31167605  0.03432485    -0.02200
Br753      Br  0.00675401  0.30396172  0.09539034    -0.00800
Br754      Br  0.94502692  0.27474676  0.07195415    -0.00900
Br755      Br  0.02750054  0.36027980  0.90929814    -0.00800
Br756      Br  0.96580117  0.32830985  0.88290572    -0.00800
C757        C  0.78509367  0.15543418  0.98753075    -0.01900
C758        C  0.76237455  0.15477244  0.97632990     0.07800
C759        C  0.76357212  0.17770415  0.96558338    -0.02000
C760        C  0.78715208  0.20059869  0.96265315    -0.02000
C761        C  0.81000822  0.20117781  0.97191439     0.07900
C762        C  0.80881913  0.17855323  0.98522597    -0.02200
Br763      Br  0.83972867  0.17872656  0.99702495    -0.00800
Br764      Br  0.78415758  0.12471518  0.00411742    -0.00900
Br765      Br  0.78744302  0.23130625  0.94764265    -0.00800
Br766      Br  0.73284383  0.17862119  0.95780444    -0.00800
C767        C  0.30462896  0.88717218  0.28839995    -0.01900
C768        C  0.28127524  0.87253506  0.31392738     0.07800
C769        C  0.25883852  0.85703478  0.28595225    -0.02000
C770        C  0.25948933  0.85716635  0.23302421    -0.02000
C771        C  0.28249331  0.87321547  0.20734123     0.07900
C772        C  0.30519342  0.88771285  0.23522730    -0.02200
Br773      Br  0.33678423  0.90978524  0.20088804    -0.00800
Br774      Br  0.33567390  0.90780653  0.32595498    -0.00900
Br775      Br  0.22877565  0.83445202  0.19588826    -0.00800
Br776      Br  0.22708476  0.83491184  0.32016399    -0.00800
C777        C  0.15438602  0.78381661  0.03678500    -0.01900
C778        C  0.15442751  0.76114872  0.03993248     0.07800
C779        C  0.17782588  0.76224958  0.04151774    -0.02000
C780        C  0.20080975  0.78569903  0.04428507    -0.02000
C781        C  0.20092266  0.80849065  0.03997714     0.07900
C782        C  0.17759593  0.80737281  0.03477615    -0.02200
Br783      Br  0.17707968  0.83803035  0.02806896    -0.00800
Br784      Br  0.12274013  0.78295538  0.03926051    -0.00900
Br785      Br  0.23195906  0.78578257  0.05378422    -0.00800
Br786      Br  0.17893644  0.73168882  0.03646412    -0.00800
C787        C  0.37016752  0.06637712  0.77910663    -0.01900
C788        C  0.38613180  0.08908059  0.80571398     0.07800
C789        C  0.40166303  0.11169053  0.77871354    -0.02000
C790        C  0.39999797  0.11187378  0.72574815    -0.02000
C791        C  0.38332388  0.08929407  0.69936765     0.07900
C792        C  0.36889367  0.06644830  0.72619939    -0.02200
Br793      Br  0.34757605  0.03500267  0.69044730    -0.00800
Br794      Br  0.35028691  0.03489582  0.81508974    -0.00900
Br795      Br  0.41867191  0.14361327  0.69005129    -0.00800
Br796      Br  0.42383754  0.14291890  0.81424166    -0.00800
C797        C  0.35400618  0.18137212  0.93914620    -0.01900
C798        C  0.36629135  0.19859425  0.97895287     0.07800
C799        C  0.37633712  0.19218385  0.01979785    -0.02000
C800        C  0.37507846  0.16892453  0.01974761    -0.02000
C801        C  0.36373967  0.15210202  0.97886961     0.07900
C802        C  0.35268931  0.15806667  0.93913328    -0.02200
Br803      Br  0.33743080  0.13508557  0.88312740    -0.00800
Br804      Br  0.34075330  0.19067291  0.88299884    -0.00900
Br805      Br  0.39041292  0.16082750  0.07400048    -0.00800
Br806      Br  0.39336773  0.21610077  0.07395944    -0.00800
C807        C  0.32679745  0.97486815  0.05589099    -0.01900
C808        C  0.30680011  0.95793966  0.02344230     0.07800
C809        C  0.29808948  0.96788900  0.98614974    -0.02000
C810        C  0.31044468  0.99435501  0.97914352    -0.02000
C811        C  0.33164189  0.01110020  0.00920070     0.07900
C812        C  0.33918820  0.00123688  0.04862285    -0.02200
Br813      Br  0.36602452  0.02396475  0.09413118    -0.00800
Br814      Br  0.33663344  0.96216206  0.11225128    -0.00900
Br815      Br  0.29927439  0.00748880  0.92595937    -0.00800
Br816      Br  0.27029685  0.94546885  0.94219418    -0.00800
C817        C  0.48119789  0.30616178  0.11777884    -0.01900
C818        C  0.47695514  0.31467074  0.16366893     0.07800
C819        C  0.45899212  0.32209355  0.16519805    -0.02000
C820        C  0.44205732  0.31630087  0.12468185    -0.02000
C821        C  0.44373084  0.30400208  0.08153816     0.07900
C822        C  0.46377585  0.29942920  0.07780748    -0.02200
Br823      Br  0.46632492  0.28190066  0.02037725    -0.00800
Br824      Br  0.51204301  0.30590051  0.10811737    -0.00900
Br825      Br  0.41718329  0.32610375  0.12782934    -0.00800
Br826      Br  0.45944380  0.34278945  0.21987463    -0.00800
C827        C  0.42368499  0.28897899  0.36883036    -0.01900
C828        C  0.43142764  0.29249765  0.41967726     0.07800
C829        C  0.45661463  0.30001885  0.43153814    -0.02000
C830        C  0.47465907  0.30661979  0.39303381    -0.02000
C831        C  0.46737852  0.30412657  0.34133971     0.07900
C832        C  0.44108868  0.29334107  0.33009252    -0.02200
Br833      Br  0.42706896  0.28305410  0.26326063    -0.00800
Br834      Br  0.38928391  0.27947662  0.35142980    -0.00900
Br835      Br  0.50894592  0.31762579  0.41367732    -0.00800
Br836      Br  0.46604300  0.29945142  0.50088400    -0.00800
C837        C  0.59872750  0.39577010  0.29841701    -0.01900
C838        C  0.60022162  0.41629649  0.27179977     0.07800
C839        C  0.57681118  0.41424270  0.26110357    -0.02000
C840        C  0.55405391  0.39036911  0.26010848    -0.02000
C841        C  0.55419640  0.36797815  0.27119230     0.07900
C842        C  0.57602851  0.37165252  0.29731984    -0.02200
Br843      Br  0.57437356  0.34630271  0.34145370    -0.00800
Br844      Br  0.62495173  0.40161567  0.34667552    -0.00900
Br845      Br  0.52273555  0.38980190  0.24947069    -0.00800
Br846      Br  0.57463182  0.44405344  0.25792328    -0.00800
C847        C  0.67329046  0.54478363  0.36781610    -0.01900
C848        C  0.67284539  0.53803104  0.41875912     0.07800
C849        C  0.66859495  0.51390906  0.43025752    -0.02000
C850        C  0.66344950  0.49632298  0.39153201    -0.02000
C851        C  0.66342320  0.50287812  0.34038336     0.07900
C852        C  0.66985793  0.52780515  0.32892566    -0.02200
Br853      Br  0.67485951  0.53979194  0.26066708    -0.00800
Br854      Br  0.67687370  0.57678462  0.35056509    -0.00900
Br855      Br  0.65858296  0.46385792  0.40936912    -0.00800
Br856      Br  0.67142559  0.50512902  0.49880047    -0.00800
C857        C  0.67352525  0.50132157  0.12957157    -0.01900
C858        C  0.65398485  0.49532234  0.16459361     0.07800
C859        C  0.63810899  0.50517693  0.15678284    -0.02000
C860        C  0.64136828  0.52010250  0.11423908    -0.02000
C861        C  0.66060911  0.52558418  0.07943194     0.07900
C862        C  0.67641718  0.51588178  0.08674693    -0.02200
Br863      Br  0.70302625  0.52358226  0.03896136    -0.00800
Br864      Br  0.69759599  0.49116285  0.14001700    -0.00900
Br865      Br  0.61959931  0.53330571  0.10326973    -0.00800
Br866      Br  0.61404540  0.50143360  0.20700279    -0.00800
C867        C  0.73977071  0.47652409  0.27550353    -0.01900
C868        C  0.74230703  0.46144039  0.23878131     0.07800
C869        C  0.72186805  0.44750609  0.20470451    -0.02000
C870        C  0.69879305  0.44683102  0.20997118    -0.02000
C871        C  0.69626946  0.46163336  0.24737679     0.07900
C872        C  0.71712904  0.47674544  0.27944623    -0.02200
Br873      Br  0.71474805  0.49704493  0.33146549    -0.00800
Br874      Br  0.76662782  0.49705910  0.32224216    -0.00900
Br875      Br  0.67133597  0.42664065  0.16289221    -0.00800
Br876      Br  0.72621748  0.43199680  0.14606670    -0.00800
C877        C  0.81531347  0.52757057  0.07741801    -0.01900
C878        C  0.83963553  0.53445571  0.06024673     0.07800
C879        C  0.85279222  0.52442563  0.08366016    -0.02000
C880        C  0.84156394  0.50713228  0.12355689    -0.02000
C881        C  0.81665238  0.49930233  0.14023430     0.07900
C882        C  0.80371520  0.50990873  0.11683298    -0.02200
Br883      Br  0.76986522  0.50028502  0.13659672    -0.00800
Br884      Br  0.79854154  0.54361986  0.04871412    -0.00900
Br885      Br  0.86193708  0.49637060  0.15732073    -0.00800
Br886      Br  0.88650650  0.53460246  0.06067473    -0.00800
C887        C  0.83972692  0.52596524  0.30655297    -0.01900
C888        C  0.82098661  0.50042603  0.31664173     0.07800
C889        C  0.81393887  0.49289220  0.36736721    -0.02000
C890        C  0.82502218  0.51076307  0.40679628    -0.02000
C891        C  0.84432778  0.53609295  0.39662335     0.07900
C892        C  0.85163831  0.54351887  0.34618519    -0.02200
Br893      Br  0.87898796  0.57758984  0.33065168    -0.00800
Br894      Br  0.85023247  0.53736109  0.23866404    -0.00900
Br895      Br  0.81176268  0.50076147  0.47420528    -0.00800
Br896      Br  0.78719532  0.45859349  0.38347897    -0.00800
C897        C  0.84539175  0.32037333  0.32725904    -0.01900
C898        C  0.82333792  0.32142499  0.33431736     0.07800
C899        C  0.81381020  0.31914111  0.38366401    -0.02000
C900        C  0.82473661  0.31343322  0.42431129    -0.02000
C901        C  0.84594036  0.31099368  0.41643266     0.07900
C902        C  0.85670189  0.31535518  0.36802185    -0.02200
Br903      Br  0.88777690  0.31556531  0.35774863    -0.00800
Br904      Br  0.86137286  0.32721015  0.26255130    -0.00900
Br905      Br  0.80923613  0.30702378  0.48992904    -0.00800
Br906      Br  0.78487826  0.32247181  0.39575588    -0.00800
C907        C  0.84639272  0.33221545  0.13929401    -0.01900
C908        C  0.82245868  0.31329908  0.15970241     0.07800
C909        C  0.81185590  0.28787443  0.14326830    -0.02000
C910        C  0.82460044  0.28175286  0.10738334    -0.02000
C911        C  0.84758628  0.30084977  0.08589494     0.07900
C912        C  0.85862633  0.32592550  0.10256851    -0.02200
Br913      Br  0.89165106  0.35140838  0.07712636    -0.00800
Br914      Br  0.86429949  0.36683337  0.16282578    -0.00900
Br915      Br  0.80994301  0.24696781  0.08604070    -0.00800
Br916      Br  0.77897894  0.26088873  0.16565441    -0.00800
C917        C  0.81713012  0.39524846  0.24256983    -0.01900
C918        C  0.79497866  0.37140779  0.23031240     0.07800
C919        C  0.77612535  0.37267103  0.20203523    -0.02000
C920        C  0.77580304  0.39532937  0.20003409    -0.02000
C921        C  0.79426441  0.41738531  0.22624624     0.07900
C922        C  0.81682984  0.41789187  0.24021302    -0.02200
Br923      Br  0.84926981  0.44957677  0.24671159    -0.00800
Br924      Br  0.84977114  0.39856345  0.25435885    -0.00900
Br925      Br  0.75354460  0.39715887  0.15167330    -0.00800
Br926      Br  0.75404719  0.34583895  0.15632511    -0.00800
C927        C  0.71631155  0.23345004  0.29232050    -0.01900
C928        C  0.69703887  0.22688158  0.25603556     0.07800
C929        C  0.70243577  0.24335841  0.21485477    -0.02000
C930        C  0.72651670  0.26589603  0.21043261    -0.02000
C931        C  0.74515322  0.27355994  0.24877243     0.07900
C932        C  0.74017889  0.25642005  0.28857883    -0.02200
Br933      Br  0.76583910  0.26337157  0.33798994    -0.00800
Br934      Br  0.70985429  0.21174233  0.34922044    -0.00900
Br935      Br  0.73512547  0.28398362  0.14767374    -0.00800
Br936      Br  0.67743864  0.23442882  0.16208348    -0.00800
C937        C  0.64138853  0.11406583  0.11136721    -0.01900
C938        C  0.66588745  0.12546366  0.09106498     0.07800
C939        C  0.68536491  0.14884972  0.11068262    -0.02000
C940        C  0.67978077  0.16196374  0.14669252    -0.02000
C941        C  0.65515115  0.15047980  0.16836874     0.07900
C942        C  0.63644495  0.12574020  0.15142644    -0.02200
Br943      Br  0.60551274  0.10500247  0.18756866    -0.00800
Br944      Br  0.61517175  0.08088601  0.08770457    -0.00900
Br945      Br  0.70637655  0.19600302  0.16308244    -0.00800
Br946      Br  0.72007971  0.16288485  0.08908617    -0.00800
C947        C  0.66313950  0.13014771  0.33084996    -0.01900
C948        C  0.65711759  0.14857114  0.34337243     0.07800
C949        C  0.65634273  0.15409289  0.39487308    -0.02000
C950        C  0.66084908  0.14105582  0.43282468    -0.02000
C951        C  0.66604357  0.12212990  0.42020308     0.07900
C952        C  0.66768311  0.11713925  0.36893248    -0.02200
Br953      Br  0.67528569  0.09171171  0.35009200    -0.00800
Br954      Br  0.66402181  0.12110750  0.26199243    -0.00900
Br955      Br  0.66189849  0.15092078  0.50227817    -0.00800
Br956      Br  0.65059988  0.18068485  0.41467286    -0.00800
C957        C  0.57550086  0.15256739  0.25941144    -0.01900
C958        C  0.59927650  0.17501694  0.26896300     0.07800
C959        C  0.59786517  0.19429475  0.29473988    -0.02000
C960        C  0.57518583  0.19488136  0.29345921    -0.02000
C961        C  0.55273075  0.17514642  0.26950764     0.07900
C962        C  0.55258982  0.15252470  0.25954672    -0.02200
Br963      Br  0.52103070  0.11992640  0.25393391    -0.00800
Br964      Br  0.57283558  0.12033410  0.25864661    -0.00900
Br965      Br  0.57470693  0.22035955  0.33389069    -0.00800
Br966      Br  0.62351881  0.21522455  0.34452228    -0.00800
C967        C  0.49204939  0.22791947  0.21876739    -0.01900
C968        C  0.50567081  0.22333645  0.25546639     0.07800
C969        C  0.51655893  0.24033129  0.29613029    -0.02000
C970        C  0.51718781  0.26329529  0.29627676    -0.02000
C971        C  0.50586388  0.26942612  0.25688618     0.07900
C972        C  0.49151235  0.25040569  0.22016362    -0.02200
Br973      Br  0.46958757  0.25316852  0.17254029    -0.00800
Br974      Br  0.47347851  0.20334699  0.16661633    -0.00900
Br975      Br  0.53085556  0.28428902  0.35485006    -0.00800
Br976      Br  0.52680373  0.23030936  0.35612128    -0.00800
C977        C  0.44342116  0.11579574  0.40949566    -0.01900
C978        C  0.42986285  0.12696196  0.42510023     0.07800
C979        C  0.43444828  0.14929453  0.40179576    -0.02000
C980        C  0.45311531  0.16097128  0.36400426    -0.02000
C981        C  0.46710292  0.14993214  0.34772520     0.07900
C982        C  0.46129051  0.12666201  0.37018992    -0.02200
Br983      Br  0.47496215  0.10725553  0.34429934    -0.00800
Br984      Br  0.43630532  0.08454214  0.44034478    -0.00900
Br985      Br  0.45894860  0.19242410  0.33748537    -0.00800
Br986      Br  0.41555737  0.16449401  0.42342015    -0.00800
C987        C  0.42754602  0.11563188  0.14022445    -0.01900
C988        C  0.43529721  0.12396627  0.09033963     0.07800
C989        C  0.46068733  0.14359044  0.08133506    -0.02000
C990        C  0.47820271  0.15445441  0.12159698    -0.02000
C991        C  0.47040170  0.14603471  0.17154776     0.07900
C992        C  0.44505784  0.12633416  0.18031271    -0.02200
Br993      Br  0.43423413  0.11264886  0.24686970    -0.00800
Br994      Br  0.39287833  0.08910485  0.15450099    -0.00900
Br995      Br  0.51239284  0.18224401  0.10804070    -0.00800
Br996      Br  0.47101289  0.15748421  0.01454355    -0.00800
C997        C  0.50390064  0.84112761  0.86004147    -0.01900
C998        C  0.49276317  0.81502690  0.84918749     0.07800
C999        C  0.50005065  0.80089220  0.87879037    -0.02000
C1000       C  0.51713943  0.81237733  0.91944827    -0.02000
C1001       C  0.52683325  0.83794184  0.93149483     0.07900
C1002       C  0.52011672  0.85225084  0.90186394    -0.02200
Br1003     Br  0.53447663  0.88768678  0.91693127    -0.00800
Br1004     Br  0.50060088  0.86305315  0.81398160    -0.00900
Br1005     Br  0.52682798  0.79289446  0.95993143    -0.00800
Br1006     Br  0.48720653  0.76587056  0.86470350    -0.00800
C1007       C  0.50548129  0.82464061  0.58235355    -0.01900
C1008       C  0.53137626  0.84218518  0.59272217     0.07800
C1009       C  0.53988137  0.84706361  0.64318854    -0.02000
C1010       C  0.52264565  0.83471145  0.68298398    -0.02000
C1011       C  0.49644893  0.81775962  0.67287278     0.07900
C1012       C  0.48826204  0.81219377  0.62199325    -0.02200
Br1013     Br  0.45402078  0.78530303  0.60530526    -0.00800
Br1014     Br  0.49347518  0.81634932  0.51358979    -0.00900
Br1015     Br  0.53585388  0.84155250  0.75065191    -0.00800
Br1016     Br  0.57509528  0.87198622  0.65848412    -0.00800
C1017       C  0.43946221  0.72114928  0.79252616    -0.01900
C1018       C  0.45429970  0.74013721  0.75670494     0.07800
C1019       C  0.46989902  0.73619089  0.72396163    -0.02000
C1020       C  0.47043969  0.71372183  0.72640409    -0.02000
C1021       C  0.45557081  0.69461328  0.76206871     0.07900
C1022       C  0.44063190  0.69906524  0.79589015    -0.02200
Br1023     Br  0.42398308  0.67679198  0.85173456    -0.00800
Br1024     Br  0.41894909  0.72594685  0.84096546    -0.00900
Br1025     Br  0.49142284  0.70968645  0.67877116    -0.00800
Br1026     Br  0.48990474  0.76078524  0.67305378    -0.00800
C1027       C  0.50508055  0.68120253  0.88371800    -0.01900
C1028       C  0.49616541  0.65925983  0.85391503     0.07800
C1029       C  0.50682389  0.64406206  0.86109500    -0.02000
C1030       C  0.52551536  0.65041037  0.89830609    -0.02000
C1031       C  0.53379146  0.67194170  0.92837858     0.07900
C1032       C  0.52402169  0.68762216  0.92041740    -0.02200
Br1033     Br  0.53725904  0.71835819  0.95932747    -0.00800
Br1034     Br  0.49098500  0.70221424  0.87625133    -0.00900
Br1035     Br  0.54033462  0.63000647  0.90772387    -0.00800
Br1036     Br  0.49774178  0.61565367  0.81770364    -0.00800
C1037       C  0.52334556  0.67151432  0.68924392    -0.01900
C1038       C  0.49695715  0.66030193  0.67993565     0.07800
C1039       C  0.48840694  0.65632345  0.62919743    -0.02000
C1040       C  0.50541015  0.66146930  0.58914102    -0.02000
C1041       C  0.53168532  0.67217214  0.59851725     0.07900
C1042       C  0.54052656  0.67753299  0.64901173    -0.02200
Br1043     Br  0.57624515  0.69213036  0.66464430    -0.00800
Br1044     Br  0.53688191  0.67859887  0.75673003    -0.00900
Br1045     Br  0.49219947  0.65482414  0.52111081    -0.00800
Br1046     Br  0.45382088  0.64667852  0.61303077    -0.00800
C1047       C  0.33051498  0.84256483  0.87090733    -0.01900
C1048       C  0.31127926  0.81934132  0.84837788     0.07800
C1049       C  0.28615327  0.80813403  0.86765535    -0.02000
C1050       C  0.28033886  0.82053286  0.90494768    -0.02000
C1051       C  0.29969416  0.84310140  0.92744580     0.07900
C1052       C  0.32483769  0.85369799  0.91111201    -0.02200
Br1053     Br  0.35134982  0.88489415  0.94165131    -0.00800
Br1054     Br  0.36451576  0.86171429  0.84529620    -0.00900
Br1055     Br  0.24546246  0.80617377  0.92585554    -0.00800
Br1056     Br  0.25920557  0.77477493  0.84777494    -0.00800
C1057       C  0.30589251  0.81413943  0.62139174    -0.01900
C1058       C  0.31060486  0.82317321  0.67154216     0.07800
C1059       C  0.31077673  0.84547687  0.68293802    -0.02000
C1060       C  0.30618536  0.85846732  0.64486705    -0.02000
C1061       C  0.29997393  0.84851735  0.59553314     0.07900
C1062       C  0.29921776  0.82590181  0.58444752    -0.02200
Br1063     Br  0.28660725  0.80936906  0.52004831    -0.00800
Br1064     Br  0.30826693  0.78540242  0.60246953    -0.00900
Br1065     Br  0.30980055  0.89063164  0.66000941    -0.00800
Br1066     Br  0.31883025  0.85936710  0.74989058    -0.00800
C1067       C  0.36756922  0.77529746  0.71858947    -0.01900
C1068       C  0.36586743  0.79395792  0.74617529     0.07800
C1069       C  0.38943690  0.81584737  0.75884288    -0.02000
C1070       C  0.41176771  0.81501289  0.76260463    -0.02000
C1071       C  0.41171848  0.79281264  0.74913060     0.07900
C1072       C  0.39036171  0.77487549  0.71953974    -0.02200
Br1073     Br  0.39339037  0.75364938  0.67016123    -0.00800
Br1074     Br  0.34198212  0.75482320  0.66847943    -0.00900
Br1075     Br  0.44277540  0.84642799  0.77737505    -0.00800
Br1076     Br  0.39301104  0.84861941  0.75637844    -0.00800
C1077       C  0.24044272  0.70194835  0.79405800    -0.01900
C1078       C  0.22107570  0.69599602  0.75785434     0.07800
C1079       C  0.22484440  0.71568521  0.72467476    -0.02000
C1080       C  0.24832046  0.73917333  0.72363986    -0.02000
C1081       C  0.26822803  0.74419922  0.75710097     0.07900
C1082       C  0.26355345  0.72576433  0.79389808    -0.02200
Br1083     Br  0.28803359  0.73382590  0.84743483    -0.00800
Br1084     Br  0.23510722  0.67864673  0.84758738    -0.00900
Br1085     Br  0.25300481  0.76403600  0.67445315    -0.00800
Br1086     Br  0.19855780  0.71201213  0.67979957    -0.00800
C1087       C  0.11528071  0.66519873  0.87237959    -0.01900
C1088       C  0.11995520  0.66157920  0.92262978     0.07800
C1089       C  0.13745619  0.65414273  0.93268986    -0.02000
C1090       C  0.14999207  0.65005497  0.89281186    -0.02000
C1091       C  0.14502194  0.65309581  0.84165112     0.07900
C1092       C  0.12821744  0.66186714  0.83239855    -0.02200
Br1093     Br  0.12255572  0.67079891  0.76639691    -0.00800
Br1094     Br  0.08989303  0.67370595  0.85780310    -0.00900
Br1095     Br  0.17609695  0.64316555  0.91059215    -0.00800
Br1096     Br  0.14561878  0.65116521  0.00168703    -0.00800
C1097       C  0.11889376  0.63962939  0.66139840    -0.01900
C1098       C  0.14518302  0.64903703  0.66150306     0.07800
C1099       C  0.15888419  0.65953133  0.61664597    -0.02000
C1100       C  0.14811537  0.66611387  0.57715813    -0.02000
C1101       C  0.12309908  0.66118626  0.58162758     0.07900
C1102       C  0.10815313  0.64682015  0.62301423    -0.02200
Br1103     Br  0.07260908  0.63581858  0.62619392    -0.00800
Br1104     Br  0.09708958  0.61395199  0.70932675    -0.00900
Br1105     Br  0.16827849  0.68276116  0.51836595    -0.00800
Br1106     Br  0.19149741  0.66281247  0.60765182    -0.00800
C1107       C  0.30252393  0.43854510  0.81797229    -0.01900
C1108       C  0.30640253  0.46258838  0.82875871     0.07800
C1109       C  0.30407894  0.46857751  0.87908604    -0.02000
C1110       C  0.29757040  0.45068188  0.91769876    -0.02000
C1111       C  0.29425457  0.42687598  0.90702852     0.07900
C1112       C  0.29680902  0.42090747  0.85695065    -0.02200
Br1113     Br  0.29396597  0.38908493  0.84180764    -0.00800
Br1114     Br  0.30612050  0.42986919  0.75032586    -0.00900
Br1115     Br  0.29146063  0.45838084  0.98474141    -0.00800
Br1116     Br  0.30841666  0.50088977  0.89568782    -0.00800
C1117       C  0.28168113  0.45725396  0.62848160    -0.01900
C1118       C  0.30629124  0.46827805  0.65070238     0.07800
C1119       C  0.32321580  0.46160775  0.63013668    -0.02000
C1120       C  0.31615969  0.44539558  0.58809665    -0.02000
C1121       C  0.29157100  0.43409201  0.56795570     0.07900
C1122       C  0.27426508  0.43980449  0.58836775    -0.02200
Br1123     Br  0.24031897  0.42377547  0.56019904    -0.00800
Br1124     Br  0.25762015  0.46600662  0.64975778    -0.00900
Br1125     Br  0.33970191  0.43718639  0.55946639    -0.00800
Br1126     Br  0.35494524  0.47129504  0.66198170    -0.00800
C1127       C  0.41313761  0.57537006  0.74901139    -0.01900
C1128       C  0.41331559  0.59703028  0.76708879     0.07800
C1129       C  0.39149706  0.59182441  0.79463946    -0.02000
C1130       C  0.36833283  0.56818975  0.79014305    -0.02000
C1131       C  0.36638554  0.54898859  0.75743540     0.07900
C1132       C  0.38993979  0.55178014  0.74390275    -0.02200
Br1133     Br  0.39196397  0.52253471  0.72975146    -0.00800
Br1134     Br  0.44443795  0.57549108  0.74275401    -0.00900
Br1135     Br  0.34186280  0.56133105  0.83819633    -0.00800
Br1136     Br  0.39447315  0.61414791  0.84809427    -0.00800
C1137       C  0.19251853  0.57357947  0.72499062    -0.01900
C1138       C  0.17443667  0.55179835  0.75241026     0.07800
C1139       C  0.15205853  0.55147704  0.76729255    -0.02000
C1140       C  0.15129898  0.57391994  0.76672843    -0.02000
C1141       C  0.17308161  0.59758975  0.75289788     0.07900
C1142       C  0.19194100  0.59611972  0.72525182    -0.02200
Br1143     Br  0.21375033  0.62247720  0.67779805    -0.00800
Br1144     Br  0.21458986  0.57161057  0.67685561    -0.00900
Br1145     Br  0.11828944  0.57034684  0.77423659    -0.00800
Br1146     Br  0.12019205  0.51998619  0.78010723    -0.00800
C1147       C  0.25038926  0.48842980  0.78439333    -0.01900
C1148       C  0.26953124  0.50264031  0.74852142     0.07800
C1149       C  0.26560757  0.51755128  0.71372591    -0.02000
C1150       C  0.24328501  0.51844230  0.71565872    -0.02000
C1151       C  0.22557081  0.50659228  0.75522368     0.07900
C1152       C  0.22947403  0.49155654  0.78958472    -0.02200
Br1153     Br  0.20718797  0.47585594  0.84599743    -0.00800
Br1154     Br  0.25161705  0.46380079  0.82614853    -0.00900
Br1155     Br  0.23551503  0.53254275  0.65906955    -0.00800
Br1156     Br  0.28948690  0.53491528  0.65948325    -0.00800
C1157       C  0.13081280  0.44452148  0.83729483    -0.01900
C1158       C  0.14992444  0.47010218  0.84621505     0.07800
C1159       C  0.15789309  0.47815055  0.89657054    -0.02000
C1160       C  0.14698460  0.46080209  0.93677740    -0.02000
C1161       C  0.12834310  0.43521600  0.92725133     0.07900
C1162       C  0.12044542  0.42717535  0.87733194    -0.02200
Br1163     Br  0.09446580  0.39230302  0.86347177    -0.00800
Br1164     Br  0.11705863  0.43289279  0.77094231    -0.00900
Br1165     Br  0.15889148  0.47177905  0.00473594    -0.00800
Br1166     Br  0.18520266  0.51241182  0.91118044    -0.00800
C1167       C  0.11109189  0.44203702  0.61505369    -0.01900
C1168       C  0.12318705  0.43070832  0.59242721     0.07800
C1169       C  0.14755879  0.43727068  0.60884126    -0.02000
C1170       C  0.16018407  0.45565243  0.64687557    -0.02000
C1171       C  0.14840095  0.46761010  0.66963507     0.07900
C1172       C  0.12339415  0.46014707  0.65366397    -0.02200
Br1173     Br  0.10432603  0.47254812  0.68686488    -0.00800
Br1174     Br  0.07684042  0.43150410  0.59477137    -0.00900
Br1175     Br  0.19405599  0.46450265  0.66448144    -0.00800
Br1176     Br  0.16421469  0.42175562  0.57710883    -0.00800
loop_ 
_geom_bond_atom_site_label_1 
_geom_bond_atom_site_label_2 
_geom_bond_distance 
_geom_bond_site_symmetry_2 
_ccdc_geom_bond_type 
C1            C2   1.542       .  S
C1            C7   1.538       .  S
C1            C5   1.554       .  S
C1         C1138   1.568       .  S
C2            H9   1.084       .  S
C2            C3   1.363       .  D
C3            C4   1.546       .  S
C3         C1158   1.503       .  S
C4            C8   1.548       .  S
C4            C6   1.549       .  S
C4           H10   1.109       .  S
C5           H11   1.084       .  S
C5            C6   1.377       .  D
C6         C1151   1.510       .  S
C7           H12   1.087       .  S
C7            C8   1.368       .  D
C8         C1171   1.512       .  S
C13          C14   1.555       .  S
C13          C19   1.530       .  S
C13          C17   1.537       .  S
C13        C1131   1.560       .  S
C14          H21   1.085       .  S
C14          C15   1.381       .  D
C15          C16   1.553       .  S
C15        C1118   1.518       .  S
C16          C20   1.548       .  S
C16          C18   1.552       .  S
C16          H22   1.108       .  S
C17          H23   1.108       .  S
C17          C18   1.362       .  D
C18        C1148   1.505       .  S
C19          H24   1.086       .  S
C19          C20   1.360       .  D
C20        C1108   1.497       .  S
C25          C26   1.523       .  S
C25          C31   1.547       .  S
C25          C29   1.553       .  S
C25        C1141   1.559       .  S
C26          H33   1.086       .  S
C26          C27   1.353       .  D
C27          C28   1.563       .  S
C27        C1098   1.493       .  S
C28          C32   1.550       .  S
C28          C30   1.547       .  S
C28          H34   1.099       .  S
C29          H35   1.084       .  S
C29          C30   1.376       .  D
C30        C1078   1.525       .  S
C31          H36   1.085       .  S
C31          C32   1.374       .  D
C32        C1091   1.520       .  S
C37          C38   1.554       .  S
C37          C43   1.530       .  S
C37          C41   1.541       .  S
C37        C1068   1.556       .  S
C38          H45   1.085       .  S
C38          C39   1.378       .  D
C39          C40   1.556       .  S
C39        C1048   1.527       .  S
C40          C44   1.548       .  S
C40          C42   1.558       .  S
C40          H46   1.108       .  S
C41          H47   1.083       .  S
C41          C42   1.369       .  D
C42        C1081   1.512       .  S
C43          H48   1.085       .  S
C43          C44   1.359       .  D
C44        C1058   1.497       .  S
C49          C50   1.532       .  S
C49          C55   1.541       .  S
C49          C53   1.553       .  S
C49        C1128   1.560       .  S
C50          H57   1.087       .  S
C50          C51   1.364       .  D
C51          C52   1.549       .  S
C51        C1028   1.495       .  S
C52          C56   1.550       .  S
C52          C54   1.551       .  S
C52          H58   1.108       .  S
C53          H59   1.084       .  S
C53          C54   1.376       .  D
C54        C1021   1.518       .  S
C55          H60   1.082       .  S
C55          C56   1.368       .  D
C56        C1038   1.511       .  S
C61          C62   1.531       .  S
C61          C67   1.550       .  S
C61          C65   1.547       .  S
C61        C1071   1.565       .  S
C62          H69   1.087       .  S
C62          C63   1.366       .  D
C63          C64   1.548       .  S
C63        C1011   1.502       .  S
C64          C68   1.547       .  S
C64          C66   1.545       .  S
C64          H70   1.108       .  S
C65          H71   1.081       .  S
C65          C66   1.370       .  D
C66        C1018   1.510       .  S
C67          H72   1.085       .  S
C67          C68   1.374       .  D
C68         C998   1.504       .  S
C73          C74   1.545       .  S
C73          C79   1.543       .  S
C73          C77   1.546       .  S
C73         C961   1.565       .  S
C74          H81   1.086       .  S
C74          C75   1.363       .  D
C75          C76   1.540       .  S
C75         C991   1.497       .  S
C76          C80   1.546       .  S
C76          C78   1.545       .  S
C76          H82   1.107       .  S
C77          H83   1.085       .  S
C77          C78   1.373       .  D
C78         C968   1.497       .  S
C79          H84   1.084       .  S
C79          C80   1.373       .  D
C80         C981   1.516       .  S
C85          C86   1.531       .  S
C85          C91   1.552       .  S
C85          C89   1.546       .  S
C85         C958   1.563       .  S
C86          H93   1.085       .  S
C86          C87   1.363       .  D
C87          C88   1.546       .  S
C87         C948   1.503       .  S
C88          C92   1.555       .  S
C88          C90   1.550       .  S
C88          H94   1.108       .  S
C89          H95   1.083       .  S
C89          C90   1.367       .  D
C90         C928   1.508       .  S
C91          H96   1.086       .  S
C91          C92   1.380       .  D
C92         C941   1.519       .  S
C97          C98   1.537       .  S
C97         C103   1.543       .  S
C97         C101   1.549       .  S
C97         C918   1.563       .  S
C98         H105   1.085       .  S
C98          C99   1.369       .  D
C99         C100   1.552       .  S
C99         C908   1.516       .  S
C100        C104   1.545       .  S
C100        C102   1.558       .  S
C100        H106   1.107       .  S
C101        H107   1.083       .  S
C101        C102   1.377       .  D
C102        C931   1.516       .  S
C103        H108   1.085       .  S
C103        C104   1.361       .  D
C104        C898   1.499       .  S
C109        C110   1.542       .  S
C109        C115   1.533       .  S
C109        C113   1.554       .  S
C109        C921   1.562       .  S
C110        H117   1.084       .  S
C110        C111   1.363       .  D
C111        C112   1.547       .  S
C111        C888   1.503       .  S
C112        C116   1.548       .  S
C112        C114   1.550       .  S
C112        H118   1.109       .  S
C113        H119   1.083       .  S
C113        C114   1.379       .  D
C114        C868   1.513       .  S
C115        H120   1.086       .  S
C115        C116   1.365       .  D
C116        C881   1.504       .  S
C121        C122   1.544       .  S
C121        C127   1.528       .  S
C121        C125   1.539       .  S
C121        C838   1.543       .  S
C122        H129   1.084       .  S
C122        C123   1.369       .  D
C123        C124   1.550       .  S
C123        C858   1.498       .  S
C124        C128   1.553       .  S
C124        C126   1.550       .  S
C124        H130   1.109       .  S
C125        H131   1.084       .  S
C125        C126   1.362       .  D
C126        C871   1.503       .  S
C127        H132   1.088       .  S
C127        C128   1.365       .  D
C128        C851   1.502       .  S
C133        C134   1.537       .  S
C133        C139   1.530       .  S
C133        C137   1.556       .  S
C133        C841   1.552       .  S
C134        H141   1.085       .  S
C134        C135   1.368       .  D
C135        C136   1.545       .  S
C135        C831   1.515       .  S
C136        C140   1.559       .  S
C136        C138   1.541       .  S
C136        H142   1.098       .  S
C137        H143   1.083       .  S
C137        C138   1.378       .  D
C138        C971   1.515       .  S
C139        H144   1.087       .  S
C139        C140   1.355       .  D
C140        C818   1.485       .  S
O145        C148   1.269       .  A
O145       Cd150   2.506       .  S
C146        O155   1.263       .  A
C146        O151   1.270       .  A
C146        C988   1.489       .  S
O147        C153   1.269       .  A
O147       Cd150   2.488       .  S
C148        O156   1.264       .  A
C148        C788   1.485       .  S
C149        O154   1.268       .  A
C149        O152   1.266       .  A
C149        C811   1.488   1_556  S
Cd150       O157   2.422       .  S
Cd150       O156   2.449       .  S
Cd150       O155   2.438   1_556  S
Cd150       O151   2.502   1_556  S
Cd150       O154   2.501       .  S
Cd150       O152   2.461       .  S
C153        O157   1.264       .  A
C153        C801   1.469       .  S
O158        C161   1.272       .  A
O158       Cd163   2.501       .  S
C159        O168   1.264       .  A
C159        O164   1.270   1_556  A
C159       C1051   1.489       .  S
O160        C166   1.271       .  A
O160       Cd163   2.505       .  S
C161        O169   1.266       .  A
C161        C771   1.485       .  S
C162        O167   1.269       .  A
C162        O165   1.266       .  A
C162        C808   1.493       .  S
Cd163       O170   2.397       .  S
Cd163       O169   2.432       .  S
Cd163       O168   2.459   1_554  S
Cd163       O164   2.507       .  S
Cd163       O167   2.508       .  S
Cd163       O165   2.463       .  S
C166        O170   1.261       .  A
C166        C781   1.484       .  S
O171        C174   1.271       .  A
O171       Cd176   2.502       .  S
C172        O181   1.262       .  A
C172        O177   1.268       .  A
C172        C911   1.484       .  S
O173        C179   1.268       .  A
O173       Cd176   2.513       .  S
C174        O182   1.267       .  A
C174        C738   1.483       .  S
C175        O180   1.267       .  A
C175        O178   1.264       .  A
C175        C748   1.493       .  S
Cd176       O183   2.422       .  S
Cd176       O182   2.433       .  S
Cd176       O181   2.465   1_556  S
Cd176       O177   2.498   1_556  S
Cd176       O180   2.515       .  S
Cd176       O178   2.481       .  S
C179        O183   1.260       .  A
C179        C761   1.487       .  S
O184        C187   1.266       .  A
O184       Cd189   2.503       .  S
C185        O194   1.264       .  A
C185        O190   1.268   1_556  A
C185       C1161   1.485       .  S
O186        C192   1.268       .  A
O186       Cd189   2.499       .  S
C187        O195   1.265       .  A
C187        C721   1.482       .  S
C188        O193   1.267       .  A
C188        O191   1.265       .  A
C188        C751   1.494       .  S
Cd189       O196   2.446       .  S
Cd189       O195   2.462       .  S
Cd189       O194   2.450   1_554  S
Cd189       O190   2.499       .  S
Cd189       O193   2.512       .  S
Cd189       O191   2.487       .  S
C192        O196   1.264       .  A
C192        C731   1.482       .  S
O197        C200   1.270       .  A
O197       Cd202   2.498   1_554  S
C198        O207   1.267       .  A
C198        O203   1.271       .  A
C198        C698   1.488       .  S
O199        C205   1.269   1_554  A
O199       Cd202   2.519   1_554  S
C200        O208   1.262       .  A
C200        C938   1.484       .  S
C201        O206   1.268       .  A
C201        O204   1.265       .  A
C201        C711   1.486   1_556  S
Cd202       O209   2.402       .  S
Cd202       O208   2.456   1_556  S
Cd202       O207   2.446       .  S
Cd202       O203   2.524       .  S
Cd202       O206   2.508       .  S
Cd202       O204   2.474       .  S
C205        O209   1.261       .  A
C205        C758   1.489       .  S
O210        C213   1.267   1_554  A
O210       Cd215   2.480       .  S
C211        O220   1.264       .  A
C211        O216   1.266       .  A
C211        C681   1.476       .  S
O212        C218   1.264       .  A
O212       Cd215   2.458       .  S
C213        O221   1.263       .  A
C213       C1001   1.476       .  S
C214        O219   1.268       .  A
C214        O217   1.264       .  A
C214        C708   1.492       .  S
Cd215       O222   2.508       .  S
Cd215       O221   2.449   1_554  S
Cd215       O220   2.436       .  S
Cd215       O216   2.499       .  S
Cd215       O219   2.516       .  S
Cd215       O217   2.472       .  S
C218        O222   1.268       .  A
C218        C688   1.489       .  S
O223        C226   1.269       .  A
O223       Cd228   2.502       .  S
C224        O233   1.262       .  A
C224        O229   1.270   1_556  A
C224       C1088   1.488       .  S
O225        C231   1.266       .  A
O225       Cd228   2.486       .  S
C226        O234   1.265       .  A
C226        C658   1.480       .  S
C227        O232   1.268       .  A
C227        O230   1.262       .  A
C227        C778   1.481       .  S
Cd228       O235   2.469       .  S
Cd228       O234   2.456       .  S
Cd228       O233   2.429   1_554  S
Cd228       O229   2.515       .  S
Cd228       O232   2.489       .  S
Cd228       O230   2.403       .  S
C231        O235   1.266       .  A
C231        C668   1.486   1_554  S
O236        C239   1.267   1_556  A
O236       Cd241   2.488       .  S
C237        O246   1.265       .  A
C237        O242   1.271       .  A
C237        C638   1.479       .  S
O238        C244   1.260       .  A
O238       Cd241   2.416       .  S
C239        O247   1.263       .  A
C239        C878   1.476       .  S
C240        O245   1.270       .  A
C240        O243   1.264       .  A
C240        C671   1.486       .  S
Cd241       O248   2.503       .  S
Cd241       O247   2.444   1_556  S
Cd241       O246   2.425       .  S
Cd241       O242   2.502       .  S
Cd241       O245   2.494       .  S
Cd241       O243   2.429       .  S
C244        O248   1.266       .  A
C244        C648   1.479       .  S
O249        C252   1.270       .  A
O249       Cd254   2.494       .  S
C250        O259   1.265       .  A
C250        O255   1.270   1_554  A
C250        C861   1.471       .  S
O251        C257   1.267       .  A
O251       Cd254   2.506       .  S
C252        O260   1.264       .  A
C252        C618   1.482       .  S
C253        O258   1.268   1_556  A
C253        O256   1.265       .  A
C253        C628   1.489   1_556  S
Cd254       O261   2.394       .  S
Cd254       O260   2.426       .  S
Cd254       O259   2.420   1_556  S
Cd254       O255   2.479       .  S
Cd254       O258   2.470   1_556  S
Cd254       O256   2.442       .  S
C257        O261   1.258       .  A
C257        C651   1.474       .  S
O262        C265   1.269       .  A
O262       Cd267   2.467       .  S
C263        O272   1.263       .  A
C263        O268   1.265   1_556  A
C263       C1031   1.470       .  S
O264        C270   1.261       .  A
O264       Cd267   2.425       .  S
C265        O273   1.268       .  A
C265        C608   1.476       .  S
C266        O271   1.270       .  A
C266        O269   1.263       .  A
C266        C631   1.493       .  S
Cd267       O274   2.528       .  S
Cd267       O273   2.439       .  S
Cd267       O272   2.459   1_554  S
Cd267       O268   2.460       .  S
Cd267       O271   2.500       .  S
Cd267       O269   2.444       .  S
C270        O274   1.270       .  A
C270        C691   1.480       .  S
O275        C278   1.268       .  A
O275       Cd280   2.506       .  S
C276        O285   1.265       .  A
C276        O281   1.268   1_554  A
C276        C821   1.481       .  S
O277        C283   1.266       .  A
O277       Cd280   2.484       .  S
C278        O286   1.263       .  A
C278        C588   1.477       .  S
C279        O284   1.267       .  A
C279        O282   1.263       .  A
C279        C798   1.465       .  S
Cd280       O287   2.450       .  S
Cd280       O286   2.425       .  S
Cd280       O285   2.448   1_556  S
Cd280       O281   2.478       .  S
Cd280       O284   2.474       .  S
Cd280       O282   2.419       .  S
C283        O287   1.266       .  A
C283        C598   1.487       .  S
O288        C291   1.267       .  A
O288       Cd293   2.483   1_556  S
C289        O298   1.266       .  A
C289        O294   1.268       .  A
C289        C578   1.480       .  S
O290        C296   1.269       .  A
O290       Cd293   2.491       .  S
C291        O299   1.264       .  A
C291       C1111   1.486       .  S
C292        O297   1.267   1_554  A
C292        O295   1.263       .  A
C292        C601   1.483   1_554  S
Cd293       O300   2.428       .  S
Cd293       O299   2.470   1_554  S
Cd293       O298   2.416       .  S
Cd293       O294   2.490       .  S
Cd293       O297   2.512   1_554  S
Cd293       O295   2.433       .  S
C296        O300   1.264       .  A
C296        C728   1.476       .  S
O301        C304   1.268       .  A
O301       Cd306   2.487       .  S
C302        O311   1.267       .  A
C302        O307   1.270       .  A
C302        C791   1.481       .  S
O303        C309   1.268       .  A
O303       Cd306   2.503       .  S
C304        O312   1.264       .  A
C304        C978   1.481       .  S
C305        O310   1.269       .  A
C305        O308   1.262       .  A
C305        C571   1.475       .  S
Cd306       O313   2.395       .  S
Cd306       O312   2.455       .  S
Cd306       O311   2.433       .  S
Cd306       O307   2.472       .  S
Cd306       O310   2.489       .  S
Cd306       O308   2.408       .  S
C309        O313   1.261       .  A
C309        C558   1.475       .  S
O314        C317   1.269       .  A
O314       Cd319   2.469       .  S
C315        O324   1.263       .  A
C315        O320   1.268       .  A
C315        C768   1.485       .  S
O316        C322   1.267       .  A
O316       Cd319   2.484       .  S
C317        O325   1.265       .  A
C317       C1061   1.487       .  S
C318        O323   1.265       .  A
C318        O321   1.265       .  A
C318        C568   1.476       .  S
Cd319       O326   2.410       .  S
Cd319       O325   2.467       .  S
Cd319       O324   2.447       .  S
Cd319       O320   2.510       .  S
Cd319       O323   2.454       .  S
Cd319       O321   2.445       .  S
C322        O326   1.264       .  A
C322        C548   1.469       .  S
O327        C330   1.268       .  A
O327       Cd332   2.498       .  S
C328        O337   1.264       .  A
C328        O333   1.268       .  A
C328        C741   1.480       .  S
O329        C335   1.268       .  A
O329       Cd332   2.482       .  S
C330        O338   1.264       .  A
C330        C901   1.487       .  S
C331        O336   1.266       .  A
C331        O334   1.264       .  A
C331        C528   1.481       .  S
Cd332       O339   2.425       .  S
Cd332       O338   2.454       .  S
Cd332       O337   2.440       .  S
Cd332       O333   2.499       .  S
Cd332       O336   2.490       .  S
Cd332       O334   2.461       .  S
C335        O339   1.265       .  A
C335        C541   1.474       .  S
O340        C343   1.267       .  A
O340       Cd345   2.472       .  S
C341        O350   1.265       .  A
C341        O346   1.267       .  A
C341        C718   1.483       .  S
O342        C348   1.269       .  A
O342       Cd345   2.515       .  S
C343        O351   1.265       .  A
C343       C1168   1.480       .  S
C344        O349   1.268       .  A
C344        O347   1.264       .  A
C344        C531   1.479       .  S
Cd345       O352   2.424       .  S
Cd345       O351   2.465       .  S
Cd345       O350   2.449       .  S
Cd345       O346   2.491       .  S
Cd345       O349   2.495       .  S
Cd345       O347   2.451       .  S
C348        O352   1.262       .  A
C348        C518   1.481       .  S
O353        C356   1.268       .  A
O353       Cd358   2.509       .  S
C354        O363   1.263       .  A
C354        O359   1.268       .  A
C354        C951   1.490       .  S
O355        C361   1.270       .  A
O355       Cd358   2.500       .  S
C356        O364   1.265       .  A
C356        C701   1.484       .  S
C357        O362   1.267       .  A
C357        O360   1.264       .  A
C357        C508   1.480       .  S
Cd358       O365   2.416       .  S
Cd358       O364   2.434       .  S
Cd358       O363   2.454       .  S
Cd358       O359   2.484       .  S
Cd358       O362   2.493       .  S
Cd358       O360   2.458       .  S
C361        O365   1.264       .  A
C361        C538   1.475       .  S
O366        C369   1.266       .  A
O366       Cd371   2.484       .  S
C367        O376   1.264       .  A
C367        O372   1.268       .  A
C367       C1008   1.484       .  S
O368        C374   1.269       .  A
O368       Cd371   2.501       .  S
C369        O377   1.265       .  A
C369        C678   1.473       .  S
C370        O375   1.267       .  A
C370        O373   1.263       .  A
C370        C511   1.485       .  S
Cd371       O378   2.447       .  S
Cd371       O377   2.446       .  S
Cd371       O376   2.440       .  S
Cd371       O372   2.476       .  S
Cd371       O375   2.507       .  S
Cd371       O373   2.464       .  S
C374        O378   1.264       .  A
C374        C498   1.482       .  S
O379        C382   1.267       .  A
O379       Cd384   2.498       .  S
C380        O389   1.264       .  A
C380        O385   1.266       .  A
C380       C1101   1.490       .  S
O381        C387   1.265       .  A
O381       Cd384   2.495       .  S
C382        O390   1.264       .  A
C382        C661   1.483       .  S
C383        O388   1.264       .  A
C383        O386   1.265       .  A
C383        C488   1.481       .  S
Cd384       O391   2.419       .  S
Cd384       O390   2.472       .  S
Cd384       O389   2.476       .  S
Cd384       O385   2.503       .  S
Cd384       O388   2.491       .  S
Cd384       O386   2.464       .  S
C387        O391   1.263       .  A
C387        C551   1.467       .  S
O392        C395   1.267       .  A
O392       Cd397   2.498       .  S
C393        O402   1.264       .  A
C393        O398   1.267       .  A
C393        C891   1.492       .  S
O394        C400   1.269       .  A
O394       Cd397   2.500       .  S
C395        O403   1.263       .  A
C395        C641   1.474       .  S
C396        O401   1.266       .  A
C396        O399   1.263       .  A
C396        C491   1.475       .  S
Cd397       O404   2.417       .  S
Cd397       O403   2.423       .  S
Cd397       O402   2.458       .  S
Cd397       O398   2.489       .  S
Cd397       O401   2.486       .  S
Cd397       O399   2.457       .  S
C400        O404   1.265       .  A
C400        C478   1.474       .  S
O405        C408   1.267       .  A
O405       Cd410   2.482       .  S
C406        O415   1.263       .  A
C406        O411   1.269       .  A
C406        C848   1.487       .  S
O407        C413   1.268       .  A
O407       Cd410   2.491       .  S
C408        O416   1.265       .  A
C408        C621   1.483       .  S
C409        O414   1.271       .  A
C409        O412   1.264       .  A
C409        C481   1.475       .  S
Cd410       O417   2.446       .  S
Cd410       O416   2.451       .  S
Cd410       O415   2.428       .  S
Cd410       O411   2.483       .  S
Cd410       O414   2.495       .  S
Cd410       O412   2.409       .  S
C413        O417   1.264       .  A
C413        C468   1.486       .  S
O418        C421   1.270       .  A
O418       Cd423   2.504       .  S
C419        O428   1.263       .  A
C419        O424   1.271       .  A
C419        C611   1.483       .  S
O420        C426   1.270       .  A
O420       Cd423   2.497       .  S
C421        O429   1.264       .  A
C421       C1041   1.501       .  S
C422        O427   1.268       .  A
C422        O425   1.265       .  A
C422        C471   1.490       .  S
Cd423       O430   2.434       .  S
Cd423       O429   2.455       .  S
Cd423       O428   2.436       .  S
Cd423       O424   2.506       .  S
Cd423       O427   2.486       .  S
Cd423       O425   2.456       .  S
C426        O430   1.264       .  A
C426        C501   1.481       .  S
O431        C434   1.268       .  A
O431       Cd436   2.491       .  S
C432        O441   1.265       .  A
C432        O437   1.271       .  A
C432        C591   1.484       .  S
O433        C439   1.266       .  A
O433       Cd436   2.490       .  S
C434        O442   1.261       .  A
C434        C828   1.484       .  S
C435        O440   1.268       .  A
C435        O438   1.263       .  A
C435        C561   1.473       .  S
Cd436       O443   2.440       .  S
Cd436       O442   2.440       .  S
Cd436       O441   2.397       .  S
Cd436       O437   2.502       .  S
Cd436       O440   2.485       .  S
Cd436       O438   2.402       .  S
C439        O443   1.262       .  A
C439        C461   1.481       .  S
O444        C447   1.268       .  A
O444       Cd449   2.484       .  S
C445        O454   1.265       .  A
C445        O450   1.268       .  A
C445       C1121   1.475       .  S
O446        C452   1.268       .  A
O446       Cd449   2.477       .  S
C447        O455   1.264       .  A
C447        C581   1.479       .  S
C448        O453   1.266       .  A
C448        O451   1.263       .  A
C448        C458   1.479       .  S
Cd449       O456   2.430       .  S
Cd449       O455   2.430       .  S
Cd449       O454   2.448       .  S
Cd449       O450   2.474       .  S
Cd449       O453   2.480       .  S
Cd449       O451   2.440       .  S
C452        O456   1.265       .  A
C452        C521   1.479       .  S
C457        C458   1.412       .  A
C457        C462   1.406       .  A
C457       Br464   1.935       .  S
C458        C459   1.411       .  A
C459        C460   1.410       .  A
C459       Br466   1.931       .  S
C460        C461   1.413       .  A
C460       Br465   1.931       .  S
C461        C462   1.413       .  A
C462       Br463   1.935       .  S
C467        C468   1.412       .  A
C467        C472   1.409       .  A
C467       Br474   1.936       .  S
C468        C469   1.413       .  A
C469        C470   1.412       .  A
C469       Br476   1.932       .  S
C470        C471   1.414       .  A
C470       Br475   1.932       .  S
C471        C472   1.417       .  A
C472       Br473   1.934       .  S
C477        C478   1.408       .  A
C477        C482   1.403       .  A
C477       Br484   1.933       .  S
C478        C479   1.410       .  A
C479        C480   1.412       .  A
C479       Br486   1.927       .  S
C480        C481   1.410       .  A
C480       Br485   1.928       .  S
C481        C482   1.411       .  A
C482       Br483   1.933       .  S
C487        C488   1.411       .  A
C487        C492   1.408   1_455  A
C487       Br494   1.931       .  S
C488        C489   1.413   1_455  A
C489        C490   1.409       .  A
C489       Br496   1.928   1_655  S
C490        C491   1.407       .  A
C490       Br495   1.930       .  S
C491        C492   1.410       .  A
C492       Br493   1.930       .  S
C497        C498   1.411       .  A
C497        C502   1.409       .  A
C497       Br504   1.931       .  S
C498        C499   1.412       .  A
C499        C500   1.411       .  A
C499       Br506   1.932       .  S
C500        C501   1.412       .  A
C500       Br505   1.932       .  S
C501        C502   1.411       .  A
C502       Br503   1.932       .  S
C507        C508   1.409       .  A
C507        C512   1.411   1_545  A
C507       Br514   1.930       .  S
C508        C509   1.410   1_545  A
C509        C510   1.410       .  A
C509       Br516   1.932   1_565  S
C510        C511   1.413       .  A
C510       Br515   1.931       .  S
C511        C512   1.413       .  A
C512       Br513   1.930       .  S
C517        C518   1.412       .  A
C517        C522   1.407       .  A
C517       Br524   1.933       .  S
C518        C519   1.412       .  A
C519        C520   1.411       .  A
C519       Br526   1.930       .  S
C520        C521   1.413       .  A
C520       Br525   1.932       .  S
C521        C522   1.410       .  A
C522       Br523   1.933       .  S
C527        C528   1.412       .  A
C527        C532   1.408       .  A
C527       Br534   1.931       .  S
C528        C529   1.411       .  A
C529        C530   1.411       .  A
C529       Br536   1.930       .  S
C530        C531   1.411   1_655  A
C530       Br535   1.929   1_655  S
C531        C532   1.409   1_455  A
C532       Br533   1.931   1_655  S
C537        C538   1.409       .  A
C537        C542   1.411       .  A
C537       Br544   1.928       .  S
C538        C539   1.410       .  A
C539        C540   1.404       .  A
C539       Br546   1.933       .  S
C540        C541   1.409       .  A
C540       Br545   1.934       .  S
C541        C542   1.412       .  A
C542       Br543   1.929       .  S
C547        C548   1.409       .  A
C547        C552   1.409       .  A
C547       Br554   1.928       .  S
C548        C549   1.409       .  A
C549        C550   1.402       .  A
C549       Br556   1.932       .  S
C550        C551   1.406       .  A
C550       Br555   1.932       .  S
C551        C552   1.408       .  A
C552       Br553   1.927       .  S
C557        C558   1.413       .  A
C557        C562   1.399       .  A
C557       Br564   1.940       .  S
C558        C559   1.412       .  A
C559        C560   1.413       .  A
C559       Br566   1.928       .  S
C560        C561   1.411       .  A
C560       Br565   1.928       .  S
C561        C562   1.411       .  A
C562       Br563   1.941       .  S
C567        C568   1.412       .  A
C567        C572   1.409       .  A
C567       Br574   1.932       .  S
C568        C569   1.411       .  A
C569        C570   1.405   1_565  A
C569       Br576   1.934       .  S
C570        C571   1.411       .  A
C570       Br575   1.934       .  S
C571        C572   1.411   1_545  A
C572       Br573   1.931   1_565  S
C577        C578   1.410       .  A
C577        C582   1.404       .  A
C577       Br584   1.935       .  S
C578        C579   1.413       .  A
C579        C580   1.411       .  A
C579       Br586   1.930       .  S
C580        C581   1.412       .  A
C580       Br585   1.932       .  S
C581        C582   1.411       .  A
C582       Br583   1.932       .  S
C587        C588   1.409       .  A
C587        C592   1.403       .  A
C587       Br594   1.934       .  S
C588        C589   1.410       .  A
C589        C590   1.414       .  A
C589       Br596   1.930       .  S
C590        C591   1.416       .  A
C590       Br595   1.930       .  S
C591        C592   1.413       .  A
C592       Br593   1.936       .  S
C597        C598   1.414       .  A
C597        C602   1.405       .  A
C597       Br604   1.935       .  S
C598        C599   1.416   1_556  A
C599        C600   1.414       .  A
C599       Br606   1.931       .  S
C600        C601   1.412   1_554  A
C600       Br605   1.930       .  S
C601        C602   1.410       .  A
C602       Br603   1.935       .  S
C607        C608   1.410       .  A
C607        C612   1.410       .  A
C607       Br614   1.931       .  S
C608        C609   1.408       .  A
C609        C610   1.408       .  A
C609       Br616   1.933       .  S
C610        C611   1.413       .  A
C610       Br615   1.929       .  S
C611        C612   1.412       .  A
C612       Br613   1.930       .  S
C617        C618   1.411       .  A
C617        C622   1.411       .  A
C617       Br624   1.931       .  S
C618        C619   1.413       .  A
C619        C620   1.407       .  A
C619       Br626   1.934       .  S
C620        C621   1.412       .  A
C620       Br625   1.934       .  S
C621        C622   1.413       .  A
C622       Br623   1.931       .  S
C627        C628   1.414       .  A
C627        C632   1.409       .  A
C627       Br634   1.937       .  S
C628        C629   1.415       .  A
C629        C630   1.412       .  A
C629       Br636   1.934       .  S
C630        C631   1.415       .  A
C630       Br635   1.933       .  S
C631        C632   1.418       .  A
C632       Br633   1.936       .  S
C637        C638   1.411       .  A
C637        C642   1.403       .  A
C637       Br644   1.930       .  S
C638        C639   1.412       .  A
C639        C640   1.412       .  A
C639       Br646   1.926       .  S
C640        C641   1.410       .  A
C640       Br645   1.929       .  S
C641        C642   1.406       .  A
C642       Br643   1.934       .  S
C647        C648   1.413       .  A
C647        C652   1.413       .  A
C647       Br654   1.927   1_556  S
C648        C649   1.415       .  A
C649        C650   1.400       .  A
C649       Br656   1.939       .  S
C650        C651   1.411       .  A
C650       Br655   1.941       .  S
C651        C652   1.409       .  A
C652       Br653   1.928   1_556  S
C657        C658   1.408       .  A
C657        C662   1.410       .  A
C657       Br664   1.928       .  S
C658        C659   1.411       .  A
C659        C660   1.412       .  A
C659       Br666   1.930       .  S
C660        C661   1.412       .  A
C660       Br665   1.930       .  S
C661        C662   1.411       .  A
C662       Br663   1.928       .  S
C667        C668   1.411   1_655  A
C667        C672   1.408       .  A
C667       Br674   1.933   1_655  S
C668        C669   1.413   1_456  A
C669        C670   1.412       .  A
C669       Br676   1.930   1_655  S
C670        C671   1.413   1_554  A
C670       Br675   1.931       .  S
C671        C672   1.414       .  A
C672       Br673   1.931       .  S
C677        C678   1.410       .  A
C677        C682   1.409       .  A
C677       Br684   1.930       .  S
C678        C679   1.408       .  A
C679        C680   1.406       .  A
C679       Br686   1.929       .  S
C680        C681   1.408       .  A
C680       Br685   1.929       .  S
C681        C682   1.411       .  A
C682       Br683   1.930       .  S
C687        C688   1.416       .  A
C687        C692   1.413       .  A
C687       Br694   1.931   1_554  S
C688        C689   1.413       .  A
C689        C690   1.409       .  A
C689       Br696   1.931       .  S
C690        C691   1.409       .  A
C690       Br695   1.932       .  S
C691        C692   1.409       .  A
C692       Br693   1.930   1_554  S
C697        C698   1.412       .  A
C697        C702   1.406       .  A
C697       Br704   1.931       .  S
C698        C699   1.413       .  A
C699        C700   1.417       .  A
C699       Br706   1.928       .  S
C700        C701   1.413       .  A
C700       Br705   1.929       .  S
C701        C702   1.409       .  A
C702       Br703   1.935       .  S
C707        C708   1.415       .  A
C707        C712   1.415       .  A
C707       Br714   1.931       .  S
C708        C709   1.413   1_554  A
C709        C710   1.411       .  A
C709       Br716   1.931       .  S
C710        C711   1.410   1_566  A
C710       Br715   1.932   1_565  S
C711        C712   1.411   1_545  A
C712       Br713   1.930   1_565  S
C717        C718   1.409       .  A
C717        C722   1.407       .  A
C717       Br724   1.928       .  S
C718        C719   1.413       .  A
C719        C720   1.412       .  A
C719       Br726   1.931       .  S
C720        C721   1.412       .  A
C720       Br725   1.930       .  S
C721        C722   1.409       .  A
C722       Br723   1.931       .  S
C727        C728   1.409   1_556  A
C727        C732   1.410       .  A
C727       Br734   1.932       .  S
C728        C729   1.409       .  A
C729        C730   1.408       .  A
C729       Br736   1.931       .  S
C730        C731   1.412       .  A
C730       Br735   1.932       .  S
C731        C732   1.414   1_554  A
C732       Br733   1.931       .  S
C737        C738   1.411       .  A
C737        C742   1.412       .  A
C737       Br744   1.929       .  S
C738        C739   1.412       .  A
C739        C740   1.407       .  A
C739       Br746   1.931       .  S
C740        C741   1.410       .  A
C740       Br745   1.934       .  S
C741        C742   1.411       .  A
C742       Br743   1.929       .  S
C747        C748   1.413   1_554  A
C747        C752   1.415       .  A
C747       Br754   1.931       .  S
C748        C749   1.412       .  A
C749        C750   1.413   1_655  A
C749       Br756   1.932       .  S
C750        C751   1.414   1_556  A
C750       Br755   1.929       .  S
C751        C752   1.415   1_455  A
C752       Br753   1.931   1_655  S
C757        C758   1.414       .  A
C757        C762   1.415       .  A
C757       Br764   1.930   1_556  S
C758        C759   1.416       .  A
C759        C760   1.405       .  A
C759       Br766   1.941       .  S
C760        C761   1.416       .  A
C760       Br765   1.940       .  S
C761        C762   1.413       .  A
C762       Br763   1.930       .  S
C767        C768   1.413       .  A
C767        C772   1.414       .  A
C767       Br774   1.929       .  S
C768        C769   1.411       .  A
C769        C770   1.407       .  A
C769       Br776   1.935       .  S
C770        C771   1.413       .  A
C770       Br775   1.934       .  S
C771        C772   1.412       .  A
C772       Br773   1.929       .  S
C777        C778   1.412       .  A
C777        C782   1.412       .  A
C777       Br784   1.931       .  S
C778        C779   1.413       .  A
C779        C780   1.403       .  A
C779       Br786   1.940       .  S
C780        C781   1.417       .  A
C780       Br785   1.939       .  S
C781        C782   1.413       .  A
C782       Br783   1.930       .  S
C787        C788   1.412       .  A
C787        C792   1.408       .  A
C787       Br794   1.931       .  S
C788        C789   1.413       .  A
C789        C790   1.412       .  A
C789       Br796   1.930       .  S
C790        C791   1.412       .  A
C790       Br795   1.932       .  S
C791        C792   1.411       .  A
C792       Br793   1.933       .  S
C797        C798   1.407       .  A
C797        C802   1.407       .  A
C797       Br804   1.930       .  S
C798        C799   1.407   1_556  A
C799        C800   1.406       .  A
C799       Br806   1.932       .  S
C800        C801   1.410   1_554  A
C800       Br805   1.930       .  S
C801        C802   1.408       .  A
C802       Br803   1.928       .  S
C807        C808   1.415       .  A
C807        C812   1.410   1_565  A
C807       Br814   1.933       .  S
C808        C809   1.415   1_554  A
C809        C810   1.414       .  A
C809       Br816   1.930       .  S
C810        C811   1.413   1_566  A
C810       Br815   1.931   1_565  S
C811        C812   1.410       .  A
C812       Br813   1.931       .  S
C817        C818   1.408       .  A
C817        C822   1.408       .  A
C817       Br824   1.934       .  S
C818        C819   1.410       .  A
C819        C820   1.408       .  A
C819       Br826   1.931       .  S
C820        C821   1.412       .  A
C820       Br825   1.932       .  S
C821        C822   1.414       .  A
C822       Br823   1.929       .  S
C827        C828   1.410       .  A
C827        C832   1.411       .  A
C827       Br834   1.939       .  S
C828        C829   1.405       .  A
C829        C830   1.409       .  A
C829       Br836   1.937       .  S
C830        C831   1.427       .  A
C830       Br835   1.931       .  S
C831        C832   1.425       .  A
C832       Br833   1.929       .  S
C837        C838   1.418       .  A
C837        C842   1.415       .  A
C837       Br844   1.942       .  S
C838        C839   1.413       .  A
C839        C840   1.408       .  A
C839       Br846   1.928       .  S
C840        C841   1.427       .  A
C840       Br845   1.938       .  S
C841        C842   1.423       .  A
C842       Br843   1.923       .  S
C847        C848   1.414       .  A
C847        C852   1.410       .  A
C847       Br854   1.936       .  S
C848        C849   1.412       .  A
C849        C850   1.409       .  A
C849       Br856   1.935       .  S
C850        C851   1.419       .  A
C850       Br855   1.935       .  S
C851        C852   1.415       .  A
C852       Br853   1.924       .  S
C857        C858   1.414       .  A
C857        C862   1.406       .  A
C857       Br864   1.918       .  S
C858        C859   1.419       .  A
C859        C860   1.409       .  A
C859       Br866   1.923       .  S
C860        C861   1.403       .  A
C860       Br865   1.931       .  S
C861        C862   1.406       .  A
C862       Br863   1.933       .  S
C867        C868   1.418       .  A
C867        C872   1.412       .  A
C867       Br874   1.920       .  S
C868        C869   1.417       .  A
C869        C870   1.413       .  A
C869       Br876   1.925       .  S
C870        C871   1.418       .  A
C870       Br875   1.941       .  S
C871        C872   1.411       .  A
C872       Br873   1.929       .  S
C877        C878   1.407       .  A
C877        C882   1.412       .  A
C877       Br884   1.933       .  S
C878        C879   1.403       .  A
C879        C880   1.407       .  A
C879       Br886   1.934       .  S
C880        C881   1.422       .  A
C880       Br885   1.928       .  S
C881        C882   1.419       .  A
C882       Br883   1.925       .  S
C887        C888   1.414       .  A
C887        C892   1.411       .  A
C887       Br894   1.924       .  S
C888        C889   1.420       .  A
C889        C890   1.412       .  A
C889       Br896   1.938       .  S
C890        C891   1.414       .  A
C890       Br895   1.934       .  S
C891        C892   1.414       .  A
C892       Br893   1.936       .  S
C897        C898   1.412       .  A
C897        C902   1.409       .  A
C897       Br904   1.920       .  S
C898        C899   1.416       .  A
C899        C900   1.413       .  A
C899       Br906   1.934       .  S
C900        C901   1.413       .  A
C900       Br905   1.931       .  S
C901        C902   1.410       .  A
C902       Br903   1.935       .  S
C907        C908   1.428       .  A
C907        C912   1.412       .  A
C907       Br914   1.932       .  S
C908        C909   1.423       .  A
C909        C910   1.413       .  A
C909       Br916   1.928       .  S
C910        C911   1.409       .  A
C910       Br915   1.936       .  S
C911        C912   1.403       .  A
C912       Br913   1.934       .  S
C917        C918   1.427       .  A
C917        C922   1.418       .  A
C917       Br924   1.942       .  S
C918        C919   1.422       .  A
C919        C920   1.419       .  A
C919       Br926   1.927       .  S
C920        C921   1.419       .  A
C920       Br925   1.927       .  S
C921        C922   1.427       .  A
C922       Br923   1.942       .  S
C927        C928   1.413       .  A
C927        C932   1.417       .  A
C927       Br934   1.924       .  S
C928        C929   1.414       .  A
C929        C930   1.414       .  A
C929       Br936   1.936       .  S
C930        C931   1.417       .  A
C930       Br935   1.925       .  S
C931        C932   1.416       .  A
C932       Br933   1.922       .  S
C937        C938   1.401       .  A
C937        C942   1.410       .  A
C937       Br944   1.936       .  S
C938        C939   1.410       .  A
C939        C940   1.413       .  A
C939       Br946   1.933       .  S
C940        C941   1.422       .  A
C940       Br945   1.924       .  S
C941        C942   1.424       .  A
C942       Br943   1.913       .  S
C947        C948   1.417       .  A
C947        C952   1.412       .  A
C947       Br954   1.924       .  S
C948        C949   1.418       .  A
C949        C950   1.410       .  A
C949       Br956   1.937       .  S
C950        C951   1.413       .  A
C950       Br955   1.935       .  S
C951        C952   1.413       .  A
C952       Br953   1.937       .  S
C957        C958   1.418       .  A
C957        C962   1.415       .  A
C957       Br964   1.921       .  S
C958        C959   1.422       .  A
C959        C960   1.422       .  A
C959       Br966   1.942       .  S
C960        C961   1.428       .  A
C960       Br965   1.926       .  S
C961        C962   1.426       .  A
C962       Br963   1.942       .  S
C967        C968   1.410       .  A
C967        C972   1.415       .  A
C967       Br974   1.927       .  S
C968        C969   1.408       .  A
C969        C970   1.407       .  A
C969       Br976   1.934       .  S
C970        C971   1.417       .  A
C970       Br975   1.916       .  S
C971        C972   1.424       .  A
C972       Br973   1.924       .  S
C977        C978   1.404       .  A
C977        C982   1.411       .  A
C977       Br984   1.934       .  S
C978        C979   1.406       .  A
C979        C980   1.412       .  A
C979       Br986   1.937       .  S
C980        C981   1.426       .  A
C980       Br985   1.925       .  S
C981        C982   1.425       .  A
C982       Br983   1.928       .  S
C987        C988   1.414       .  A
C987        C992   1.409       .  A
C987       Br994   1.935       .  S
C988        C989   1.413       .  A
C989        C990   1.413       .  A
C989       Br996   1.932       .  S
C990        C991   1.417       .  A
C990       Br995   1.935       .  S
C991        C992   1.411       .  A
C992       Br993   1.926       .  S
C997        C998   1.418       .  A
C997       C1002   1.408       .  A
C997      Br1004   1.920       .  S
C998        C999   1.417       .  A
C999       C1000   1.411       .  A
C999      Br1006   1.919       .  S
C1000      C1001   1.407       .  A
C1000     Br1005   1.934       .  S
C1001      C1002   1.404       .  A
C1002     Br1003   1.933       .  S
C1007      C1008   1.410       .  A
C1007      C1012   1.408       .  A
C1007     Br1014   1.935       .  S
C1008      C1009   1.412       .  A
C1009      C1010   1.411       .  A
C1009     Br1016   1.936       .  S
C1010      C1011   1.417       .  A
C1010     Br1015   1.925       .  S
C1011      C1012   1.420       .  A
C1012     Br1013   1.934       .  S
C1017      C1018   1.417       .  A
C1017      C1022   1.414       .  A
C1017     Br1024   1.940       .  S
C1018      C1019   1.415       .  A
C1019      C1020   1.415       .  A
C1019     Br1026   1.928       .  S
C1020      C1021   1.418       .  A
C1020     Br1025   1.924       .  S
C1021      C1022   1.419       .  A
C1022     Br1023   1.921       .  S
C1027      C1028   1.413       .  A
C1027      C1032   1.408       .  A
C1027     Br1034   1.924       .  S
C1028      C1029   1.420       .  A
C1029      C1030   1.408       .  A
C1029     Br1036   1.927       .  S
C1030      C1031   1.402       .  A
C1030     Br1035   1.932       .  S
C1031      C1032   1.406       .  A
C1032     Br1033   1.932       .  S
C1037      C1038   1.418       .  A
C1037      C1042   1.415       .  A
C1037     Br1044   1.927       .  S
C1038      C1039   1.420       .  A
C1039      C1040   1.412       .  A
C1039     Br1046   1.940       .  S
C1040      C1041   1.416       .  A
C1040     Br1045   1.934       .  S
C1041      C1042   1.419       .  A
C1042     Br1043   1.939       .  S
C1047      C1048   1.430       .  A
C1047      C1052   1.415       .  A
C1047     Br1054   1.917       .  S
C1048      C1049   1.424       .  A
C1049      C1050   1.414       .  A
C1049     Br1056   1.926       .  S
C1050      C1051   1.409       .  A
C1050     Br1055   1.934       .  S
C1051      C1052   1.402       .  A
C1052     Br1053   1.936       .  S
C1057      C1058   1.415       .  A
C1057      C1062   1.408       .  A
C1057     Br1064   1.933       .  S
C1058      C1059   1.413       .  A
C1059      C1060   1.413       .  A
C1059     Br1066   1.924       .  S
C1060      C1061   1.413       .  A
C1060     Br1065   1.932       .  S
C1061      C1062   1.412       .  A
C1062     Br1063   1.934       .  S
C1067      C1068   1.422       .  A
C1067      C1072   1.424       .  A
C1067     Br1074   1.940       .  S
C1068      C1069   1.413       .  A
C1069      C1070   1.412       .  A
C1069     Br1076   1.930       .  S
C1070      C1071   1.423       .  A
C1070     Br1075   1.922       .  S
C1071      C1072   1.431       .  A
C1072     Br1073   1.938       .  S
C1077      C1078   1.422       .  A
C1077      C1082   1.416       .  A
C1077     Br1084   1.931       .  S
C1078      C1079   1.425       .  A
C1079      C1080   1.417       .  A
C1079     Br1086   1.927       .  S
C1080      C1081   1.411       .  A
C1080     Br1085   1.926       .  S
C1081      C1082   1.416       .  A
C1082     Br1083   1.938       .  S
C1087      C1088   1.408       .  A
C1087      C1092   1.411       .  A
C1087     Br1094   1.940       .  S
C1088      C1089   1.407       .  A
C1089      C1090   1.415       .  A
C1089     Br1096   1.935   1_556  S
C1090      C1091   1.427       .  A
C1090     Br1095   1.933       .  S
C1091      C1092   1.425       .  A
C1092     Br1093   1.926       .  S
C1097      C1098   1.409       .  A
C1097      C1102   1.411       .  A
C1097     Br1104   1.932       .  S
C1098      C1099   1.411       .  A
C1099      C1100   1.412       .  A
C1099     Br1106   1.933       .  S
C1100      C1101   1.416       .  A
C1100     Br1105   1.929       .  S
C1101      C1102   1.414       .  A
C1102     Br1103   1.930       .  S
C1107      C1108   1.412       .  A
C1107      C1112   1.412       .  A
C1107     Br1114   1.924       .  S
C1108      C1109   1.416       .  A
C1109      C1110   1.408       .  A
C1109     Br1116   1.931       .  S
C1110      C1111   1.411       .  A
C1110     Br1115   1.934       .  S
C1111      C1112   1.413       .  A
C1112     Br1113   1.933       .  S
C1117      C1118   1.425       .  A
C1117      C1122   1.413       .  A
C1117     Br1124   1.920       .  S
C1118      C1119   1.423       .  A
C1119      C1120   1.410       .  A
C1119     Br1126   1.917       .  S
C1120      C1121   1.401       .  A
C1120     Br1125   1.936       .  S
C1121      C1122   1.403       .  A
C1122     Br1123   1.936       .  S
C1127      C1128   1.423       .  A
C1127      C1132   1.418       .  A
C1127     Br1134   1.939       .  S
C1128      C1129   1.417       .  A
C1129      C1130   1.417       .  A
C1129     Br1136   1.925       .  S
C1130      C1131   1.429       .  A
C1130     Br1135   1.942       .  S
C1131      C1132   1.421       .  A
C1132     Br1133   1.923       .  S
C1137      C1138   1.423       .  A
C1137      C1142   1.420       .  A
C1137     Br1144   1.924       .  S
C1138      C1139   1.431       .  A
C1139      C1140   1.420       .  A
C1139     Br1146   1.943       .  S
C1140      C1141   1.425       .  A
C1140     Br1145   1.945       .  S
C1141      C1142   1.423       .  A
C1142     Br1143   1.944       .  S
C1147      C1148   1.413       .  A
C1147      C1152   1.413       .  A
C1147     Br1154   1.924       .  S
C1148      C1149   1.417       .  A
C1149      C1150   1.411       .  A
C1149     Br1156   1.939       .  S
C1150      C1151   1.417       .  A
C1150     Br1155   1.923       .  S
C1151      C1152   1.415       .  A
C1152     Br1153   1.923       .  S
C1157      C1158   1.414       .  A
C1157      C1162   1.408       .  A
C1157     Br1164   1.923       .  S
C1158      C1159   1.421       .  A
C1159      C1160   1.414       .  A
C1159     Br1166   1.935       .  S
C1160      C1161   1.410       .  A
C1160     Br1165   1.932   1_556  S
C1161      C1162   1.410       .  A
C1162     Br1163   1.935       .  S
C1167      C1168   1.405       .  A
C1167      C1172   1.411       .  A
C1167     Br1174   1.933       .  S
C1168      C1169   1.406       .  A
C1169      C1170   1.411       .  A
C1169     Br1176   1.937       .  S
C1170      C1171   1.422       .  A
C1170     Br1175   1.921       .  S
C1171      C1172   1.424       .  A
C1172     Br1173   1.930       .  S
