geometry optimzed in LAMMPS
_audit_creation_date              2020-11-30 
_audit_creation_method            'lammps2cif' 
_symmetry_space_group_name_H-M    'P1' 
_symmetry_Int_Tables_number       1 
_symmetry_cell_setting            triclinic 
loop_ 
_symmetry_equiv_pos_as_xyz 
  x,y,z 
_cell_length_a                    37.95447446 
_cell_length_b                    39.125170538095475 
_cell_length_c                    37.369799196692775 
_cell_angle_alpha                 89.62026121234368 
_cell_angle_beta                  90.14660421225744 
_cell_angle_gamma                 89.1054075723678 
loop_ 
_atom_site_label 
_atom_site_type_symbol 
_atom_site_fract_x 
_atom_site_fract_y 
_atom_site_fract_z 
_atom_site_charge 
O1          O  0.54996450  0.48210917  0.04782434    -0.79300
O2          O  0.56263073  0.53463940  0.47132009    -0.79300
O3          O  0.53055780  0.42441680  0.46870365    -0.79300
O4          O  0.53095932  0.55887647  0.03845664    -0.79200
O5          O  0.56822934  0.46578259  0.46850375    -0.79400
O6          O  0.51699543  0.53165474  0.08805828    -0.79300
O7          O  0.52138727  0.57313398  0.46983065    -0.79300
O8          O  0.51886674  0.43534793  0.03920286    -0.79300
C9          C  0.54539217  0.45037520  0.05292667     1.10400
C10         C  0.55274690  0.56425076  0.46260683     1.10300
C11         C  0.56135344  0.43511466  0.46209020     1.10400
C12         C  0.53196948  0.55634119  0.07293376     1.10300
O13         O  0.46005476  0.53945270  0.04582003    -0.79300
O14         O  0.50611747  0.46440628  0.42156146    -0.79500
O15         O  0.44691333  0.46325335  0.02839496    -0.79300
O16         O  0.45693996  0.53685198  0.46450361    -0.79300
O17         O  0.49966536  0.53209787  0.42487112    -0.79300
O18         O  0.48067751  0.47727869  0.07227972    -0.79300
O19         O  0.46999311  0.58716493  0.01543328    -0.79200
O20         O  0.46165469  0.45460219  0.45796381    -0.79300
Co21       Co  0.50730469  0.51093576  0.04381505     1.51500
Co22       Co  0.53406317  0.49922440  0.44926263     1.51700
Co23       Co  0.49247793  0.44634997  0.49933782     1.51600
Co24       Co  0.49203790  0.54591355  0.00099266     1.51500
O25         O  0.50427610  0.49639886  0.99321747    -1.41200
C26         C  0.45259760  0.57126553  0.03903788     1.10400
C27         C  0.47422454  0.45583918  0.42668695     1.10400
C28         C  0.45231805  0.46477736  0.06157419     1.10400
C29         C  0.46771641  0.53971349  0.43249707     1.10400
C30         C  0.57739945  0.93751429  0.09349117     0.43300
N31         N  0.55977564  0.97198741  0.05231199     0.02200
C32         C  0.40149070  0.06378723  0.04285556    -0.05700
H33         H  0.38285870  0.93904676  0.03747685     0.07700
C34         C  0.46389542  0.93856955  0.40980702    -0.06000
Co35       Co  0.49174813  0.00743269  0.07033583     0.74200
N36         N  0.43108810  0.96667848  0.04376392    -0.25200
Co37       Co  0.43197180  0.00034459  0.00008310     0.74100
C38         C  0.43261857  0.92003778  0.42098658     0.43400
N39         N  0.54520026  0.96879017  0.44016593     0.01800
N40         N  0.44064560  0.96248876  0.45634825     0.01900
N41         N  0.44129526  0.06632540  0.08767306    -0.46000
H42         H  0.52708413  0.94739745  0.12683608     0.07700
N43         N  0.45396894  0.96894889  0.07035780     0.02200
N44         N  0.43526284  0.03749075  0.45481532     0.02000
C45         C  0.42049860  0.07591672  0.41654185     0.43600
N46         N  0.56775816  0.97045605  0.46695388    -0.24600
C47         C  0.53435571  0.07117348  0.09297897    -0.05600
N48         N  0.58622263  0.95148555  0.06183906    -0.45700
N49         N  0.40980464  0.05977450  0.44651680    -0.46000
C50         C  0.56721509  0.08704454  0.08176973     0.43300
N51         N  0.45036945  0.04279236  0.06398294     0.02200
N52         N  0.56254901  0.04397473  0.46573741    -0.24700
N53         N  0.53379574  0.97244144  0.07575587    -0.25200
N54         N  0.54072132  0.04271646  0.43822881     0.01900
H55         H  0.60980353  0.07176925  0.47579798     0.07700
H56         H  0.47077561  0.06701372  0.38346591     0.07800
N57         N  0.42738720  0.04038973  0.03751540    -0.25200
N58         N  0.46698792  0.96408786  0.43340547    -0.24800
N59         N  0.55519107  0.04590168  0.04620137     0.02200
C60         C  0.41539778  0.93353052  0.08949450     0.43600
C61         C  0.59435413  0.94828941  0.46101474    -0.06100
N62         N  0.46169672  0.03813770  0.43188980    -0.24800
H63         H  0.48093222  0.93404102  0.38711613     0.07800
N64         N  0.44545734  0.94962988  0.09822601    -0.46000
H65         H  0.61727639  0.94562753  0.47797505     0.07800
C66         C  0.57868676  0.08069510  0.42342929     0.43500
C67         C  0.54245083  0.95119312  0.10285614    -0.05600
Co68       Co  0.56099651  0.00612828  0.00981798     0.73800
N69         N  0.55515096  0.94666908  0.41550261    -0.45800
C70         C  0.41077068  0.08098857  0.07642923     0.43700
N71         N  0.57876423  0.06967403  0.05287237    -0.45700
Co72       Co  0.50360303  0.00351141  0.43536421     0.73900
C73         C  0.45463779  0.06161420  0.40657628    -0.06100
C74         C  0.40605742  0.94453278  0.05313746    -0.05600
N75         N  0.52911117  0.04602242  0.06949346    -0.25200
N76         N  0.41925622  0.93671675  0.44964727    -0.45900
H77         H  0.37786747  0.06657659  0.02679253     0.07700
C78         C  0.58698171  0.06743237  0.45915792    -0.06000
Cl79       Cl  0.49663373  0.00309367  0.00511870    -0.49100
C80         C  0.58597885  0.93247239  0.42655006     0.43500
H81         H  0.51854605  0.07607924  0.11648584     0.07700
N82         N  0.54981578  0.06390081  0.41203796    -0.45800
C83         C  0.91512137  0.43182061  0.07775243     0.43300
N84         N  0.95880007  0.44342688  0.04364427     0.02200
C85         C  0.06413242  0.58660275  0.04966842    -0.05700
H86         H  0.93174800  0.61401832  0.03143661     0.07700
C87         C  0.94163494  0.54726466  0.41081643    -0.06000
Co88       Co  0.99767801  0.50479167  0.06917441     0.74200
N89         N  0.96118165  0.56725395  0.04101041    -0.25200
Co90       Co  0.00041321  0.56551475  0.00207011     0.74100
C91         C  0.92718204  0.58067238  0.42094099     0.43400
N92         N  0.96038859  0.46247548  0.43855446     0.01800
N93         N  0.96517039  0.56404451  0.46034684     0.01900
N94         N  0.06157651  0.54675142  0.09360815    -0.46000
H95         H  0.92593247  0.47844988  0.11341304     0.07700
N96         N  0.96007994  0.54402004  0.06662590     0.02200
N97         N  0.04156223  0.55896858  0.46340182     0.02000
C98         C  0.08137941  0.57293086  0.42525175     0.43600
N99         N  0.95783281  0.43978827  0.46471083    -0.24600
C100        C  0.05730786  0.45780560  0.09784272    -0.05600
N101        N  0.93347993  0.42102351  0.04892119    -0.45700
N102        N  0.06502887  0.58260147  0.45569398    -0.46000
C103        C  0.07268181  0.42476356  0.08828044     0.43300
N104        N  0.03722658  0.54168349  0.06873969     0.02200
N105        N  0.03400370  0.43440781  0.46871075    -0.24700
N106        N  0.95860161  0.46799543  0.06770188    -0.25200
N107        N  0.03677198  0.45685629  0.44234847     0.01900
H108        H  0.05901509  0.38555522  0.47937844     0.07700
H109        H  0.06918185  0.52598269  0.39039078     0.07800
N110        N  0.03805585  0.56479700  0.04290866    -0.25200
N111        N  0.96507445  0.53925287  0.43646854    -0.24800
N112        N  0.03562888  0.44060301  0.04759722     0.02200
C113        C  0.91906883  0.58008055  0.08035313     0.43600
C114        C  0.93246306  0.41766326  0.45626256    -0.06100
N115        N  0.04097931  0.53429003  0.43945587    -0.24800
H116        H  0.93663027  0.53211287  0.38731787     0.07800
N117        N  0.93553071  0.55080636  0.09080259    -0.46000
H118        H  0.92585178  0.39511782  0.47158230     0.07800
C119        C  0.07409511  0.41687486  0.42957103     0.43500
C120        C  0.93187364  0.46295432  0.09027967    -0.05600
Co121      Co  0.99884062  0.44023330  0.00563376     0.73800
N122        N  0.93833798  0.45656545  0.41175784    -0.45800
C123        C  0.08012481  0.57440660  0.08320342     0.43700
N124        N  0.05778623  0.41547910  0.05692415    -0.45700
Co125      Co  0.00091873  0.49820538  0.43871729     0.73900
C126        C  0.06542610  0.54064160  0.41453973    -0.06100
C127        C  0.93607785  0.59102147  0.04715036    -0.05600
N128        N  0.03470220  0.46537144  0.07138846    -0.25200
N129        N  0.94292860  0.58938062  0.45200074    -0.45900
H130        H  0.06983645  0.60907522  0.03386992     0.07700
C131        C  0.05688201  0.40857295  0.46327545    -0.06000
Cl132      Cl  0.99968076  0.50288880  0.00362638    -0.49100
C133        C  0.91964339  0.42871466  0.42097586     0.43500
H134        H  0.06059279  0.47252604  0.12198513     0.07700
N135        N  0.06016324  0.44706281  0.41796615    -0.45800
C136        C  0.28368439  0.29734411  0.21925454     0.46300
H137        H  0.27862856  0.29869917  0.19008301    -0.02700
C138        C  0.29566613  0.29323142  0.28757098     0.46400
H139        H  0.30141328  0.29103315  0.31651492    -0.02700
C140        C  0.31059985  0.32330102  0.23242194    -0.16400
C141        C  0.25090431  0.30474928  0.24244796    -0.16100
C142        C  0.29823912  0.26204997  0.23106774    -0.16500
C143        C  0.31729889  0.32093819  0.26852323    -0.16500
C144        C  0.25709317  0.30257142  0.27882173    -0.16100
C145        C  0.30367593  0.25972528  0.26741033    -0.16400
C146        C  0.71385864  0.28135811  0.21502714     0.46300
H147        H  0.71395293  0.27848993  0.18563632    -0.02700
C148        C  0.71654512  0.28686471  0.28375113     0.46400
H149        H  0.71878587  0.28917959  0.31314657    -0.02700
C150        C  0.68829598  0.30912968  0.22922159    -0.16400
C151        C  0.70388214  0.24840518  0.23499096    -0.16100
C152        C  0.75017248  0.29224689  0.22868593    -0.16500
C153        C  0.68940999  0.31191458  0.26614033    -0.16500
C154        C  0.70556167  0.25110365  0.27168605    -0.16100
C155        C  0.75163979  0.29497905  0.26531774    -0.16400
C156        C  0.28557837  0.71487715  0.21838655     0.46300
H157        H  0.28082403  0.71596544  0.18924012    -0.02700
C158        C  0.29448684  0.71242962  0.28702487     0.46400
H159        H  0.29860801  0.71263117  0.31624753    -0.02700
C160        C  0.31388200  0.68844033  0.23026871    -0.16400
C161        C  0.29827492  0.74898190  0.23374550    -0.16100
C162        C  0.25226902  0.70421892  0.23880322    -0.16500
C163        C  0.31837840  0.68661311  0.26687794    -0.16500
C164        C  0.30258809  0.74763030  0.27030333    -0.16100
C165        C  0.25680507  0.70283751  0.27548603    -0.16400
C166        C  0.70623208  0.71989631  0.22012049     0.46300
H167        H  0.70396618  0.72158181  0.19050176    -0.02700
C168        C  0.71139429  0.71714372  0.28905704     0.46400
H169        H  0.71458765  0.71628524  0.31846802    -0.02700
C170        C  0.68130382  0.69385039  0.23714991    -0.16400
C171        C  0.74323014  0.70876209  0.23330182    -0.16100
C172        C  0.69702064  0.75381880  0.23838701    -0.16500
C173        C  0.68392006  0.69233529  0.27400111    -0.16500
C174        C  0.74569269  0.70715347  0.27011381    -0.16100
C175        C  0.69991667  0.75257764  0.27507427    -0.16400
C176        C  0.17942397  0.68390400  0.17175723    -0.13500
C177        C  0.17668762  0.64819780  0.17565830     0.16900
C178        C  0.19834360  0.63132702  0.20144348     0.03200
C179        C  0.22037704  0.65062692  0.22359222    -0.12000
C180        C  0.22374023  0.68604248  0.21902145    -0.03100
C181        C  0.20301896  0.70266891  0.19273147     0.02400
C182        C  0.15149601  0.62919223  0.15229431     0.09300
N183        N  0.20028279  0.59465524  0.20376518     0.65600
H184        H  0.23644089  0.63767036  0.24336193     0.18500
N185        N  0.20519931  0.73876733  0.18755574     0.76100
H186        H  0.16316388  0.69732877  0.15219462     0.10100
C187        C  0.12678841  0.60593145  0.16636141     0.03800
C188        C  0.10526090  0.58727864  0.14317656    -0.05000
C189        C  0.10647959  0.59207474  0.10597592    -0.23400
C190        C  0.13110447  0.61533460  0.09182884     0.13000
C191        C  0.15305517  0.63364179  0.11499961    -0.12500
N192        N  0.12182830  0.60218114  0.20411171     0.64700
H193        H  0.08609809  0.57011532  0.15456900     0.12500
N194        N  0.13525049  0.61976723  0.05403286     0.61300
H195        H  0.17223031  0.65083198  0.10366590     0.08700
O196        O  0.22092457  0.75055196  0.16056491    -0.40200
O197        O  0.18811391  0.75872395  0.20770987    -0.39300
O198        O  0.20243036  0.57706911  0.17562956    -0.39300
O199        O  0.20516002  0.58010682  0.23365307    -0.37000
O200        O  0.13483984  0.64942387  0.04052298    -0.37900
O201        O  0.14354710  0.59451145  0.03479302    -0.34100
O202        O  0.11605290  0.62828830  0.22295808    -0.35500
O203        O  0.11729944  0.57286706  0.21748521    -0.39800
C204        C  0.21180005  0.64902115  0.34825430    -0.13500
C205        C  0.17632279  0.65485216  0.34012185     0.16900
C206        C  0.16720589  0.67864094  0.31317462     0.03200
C207        C  0.19380751  0.69523852  0.29402087    -0.12000
C208        C  0.22981446  0.68813121  0.30059241    -0.03100
C209        C  0.23853119  0.66524856  0.32915692     0.02400
C210        C  0.14964928  0.63548030  0.36041196     0.09300
N211        N  0.13110664  0.68648223  0.30527515     0.65600
H212        H  0.18617208  0.71361933  0.27352489     0.18500
N213        N  0.27398898  0.65664985  0.33884746     0.76100
H214        H  0.21891055  0.63103691  0.36936926     0.10100
C215        C  0.13293132  0.60684120  0.34586723     0.03800
C216        C  0.11036487  0.58731480  0.36717507    -0.05000
C217        C  0.10428189  0.59543137  0.40323309    -0.23400
C218        C  0.12053257  0.62476707  0.41735446     0.13000
C219        C  0.14312673  0.64419040  0.39599417    -0.12500
N220        N  0.13953830  0.59640555  0.30993587     0.64700
H221        H  0.09821965  0.56522933  0.35538364     0.12500
N222        N  0.11621461  0.63432736  0.45384635     0.61300
H223        H  0.15614008  0.66603721  0.40747051     0.08700
O224        O  0.28799460  0.67286963  0.36412612    -0.40200
O225        O  0.28495893  0.62666266  0.33278165    -0.39300
O226        O  0.11306298  0.70394802  0.32701710    -0.39300
O227        O  0.11902122  0.68083032  0.27444307    -0.37000
O228        O  0.14314298  0.63530929  0.47357933    -0.37900
O229        O  0.08860636  0.65025705  0.46319382    -0.34100
O230        O  0.17001356  0.58622250  0.30123905    -0.35500
O231        O  0.11386267  0.59046603  0.28954461    -0.39800
C232        C  0.20985205  0.34209820  0.35937182    -0.13500
C233        C  0.17502911  0.33252123  0.35305909     0.16900
C234        C  0.16795764  0.30991807  0.32482321     0.03200
C235        C  0.19539359  0.29898715  0.30232856    -0.12000
C236        C  0.23002773  0.31055901  0.30693866    -0.03100
C237        C  0.23729933  0.33144910  0.33688993     0.02400
C238        C  0.14642809  0.35054571  0.37288201     0.09300
N239        N  0.13299877  0.29817889  0.31847907     0.65600
H240        H  0.18940879  0.28181890  0.28060068     0.18500
N241        N  0.27141852  0.34510461  0.34325845     0.76100
H242        H  0.21554599  0.35982432  0.38072111     0.10100
C243        C  0.14541863  0.35057654  0.41062680     0.03800
C244        C  0.12170321  0.37241167  0.42843795    -0.05000
C245        C  0.09860094  0.39427441  0.40935715    -0.23400
C246        C  0.09902770  0.39355979  0.37158932     0.13000
C247        C  0.12297516  0.37199079  0.35376965    -0.12500
N248        N  0.16828962  0.32852602  0.43115074     0.64700
H249        H  0.12149139  0.37236717  0.45743498     0.12500
N250        N  0.07467128  0.41378697  0.35093118     0.61300
H251        H  0.12375702  0.37250907  0.32477415     0.08700
O252        O  0.29101093  0.33077868  0.36641065    -0.40200
O253        O  0.27642269  0.37613732  0.33578936    -0.39300
O254        O  0.11922974  0.30154120  0.28785560    -0.39300
O255        O  0.11743811  0.28108241  0.34225314    -0.37000
O256        O  0.08569657  0.43814743  0.33194328    -0.37900
O257        O  0.04334772  0.40400957  0.34725955    -0.34100
O258        O  0.18714421  0.34063898  0.45572490    -0.35500
O259        O  0.16731013  0.29657604  0.42692212    -0.39800
C260        C  0.13781763  0.35768472  0.12347141    -0.13500
C261        C  0.13378187  0.36106840  0.16076841     0.16900
C262        C  0.10771506  0.38409439  0.17376023     0.03200
C263        C  0.08854176  0.40471165  0.14958898    -0.12000
C264        C  0.09322929  0.40180457  0.11246300    -0.03100
C265        C  0.11723111  0.37713644  0.09941462     0.02400
C266        C  0.16004402  0.34418728  0.18532368     0.09300
N267        N  0.10024616  0.38675243  0.21131419     0.65600
H268        H  0.06908959  0.42254021  0.16002088     0.18500
N269        N  0.12224095  0.37268484  0.06183878     0.76100
H270        H  0.15806084  0.34085482  0.11278831     0.10100
C271        C  0.17232269  0.31024476  0.18020598     0.03800
C272        C  0.20174442  0.29807374  0.19953107    -0.05000
C273        C  0.21803275  0.31821228  0.22546290    -0.23400
C274        C  0.20412322  0.35127685  0.23262306     0.13000
C275        C  0.17600817  0.36396208  0.21190823    -0.12500
N276        N  0.15502656  0.28777060  0.15587169     0.64700
H277        H  0.21181116  0.27245823  0.19460344     0.12500
N278        N  0.21896903  0.37317190  0.25927273     0.61300
H279        H  0.16781837  0.39034663  0.21547165     0.08700
O280        O  0.10906182  0.34730783  0.04635987    -0.40200
O281        O  0.14295661  0.39184239  0.04497622    -0.39300
O282        O  0.09503171  0.41567825  0.22529623    -0.39300
O283        O  0.09681260  0.36013866  0.23018872    -0.37000
O284        O  0.25186407  0.37622739  0.26198860    -0.37900
O285        O  0.19910592  0.39250618  0.27746873    -0.34100
O286        O  0.17291443  0.26850933  0.13565700    -0.35500
O287        O  0.12195585  0.28492056  0.15677935    -0.39800
C288        C  0.84752090  0.36469423  0.10198204    -0.13500
C289        C  0.84567962  0.36862992  0.13925836     0.16900
C290        C  0.86575271  0.39404629  0.15579490     0.03200
C291        C  0.88737394  0.41485623  0.13510233    -0.12000
C292        C  0.88990413  0.41065449  0.09792102    -0.03100
C293        C  0.86949339  0.38540566  0.08123939     0.02400
C294        C  0.82142853  0.34731999  0.16045780     0.09300
N295        N  0.86359440  0.39987026  0.19346111     0.65600
H296        H  0.90287893  0.43388027  0.14858935     0.18500
N297        N  0.86994299  0.38122165  0.04326774     0.76100
H298        H  0.83170133  0.34556667  0.08896402     0.10100
C299        C  0.78476287  0.35054305  0.15601367     0.03800
C300        C  0.76240636  0.33132894  0.17751048    -0.05000
C301        C  0.77573059  0.30850282  0.20365191    -0.23400
C302        C  0.81262610  0.30366550  0.20656054     0.13000
C303        C  0.83506894  0.32348563  0.18526983    -0.12500
N304        N  0.76978303  0.37431174  0.13079534     0.64700
H305        H  0.73439325  0.33553362  0.17447544     0.12500
N306        N  0.82757771  0.27791558  0.22971232     0.61300
H307        H  0.86333832  0.31983242  0.18753531     0.08700
O308        O  0.84863462  0.39826058  0.02396959    -0.40200
O309        O  0.88770376  0.35709891  0.02966048    -0.39300
O310        O  0.88077134  0.38072600  0.21473323    -0.39300
O311        O  0.85147158  0.42807525  0.20451644    -0.37000
O312        O  0.81562612  0.24800265  0.22923101    -0.37900
O313        O  0.85570941  0.28356393  0.24662823    -0.34100
O314        O  0.75280761  0.36347746  0.10421023    -0.35500
O315        O  0.76880681  0.40577499  0.13799027    -0.39800
C316        C  0.81806653  0.31923112  0.33701243    -0.13500
C317        C  0.82141320  0.35454713  0.33081232     0.16900
C318        C  0.80308871  0.36952478  0.30154465     0.03200
C319        C  0.78300747  0.34902862  0.27874115    -0.12000
C320        C  0.77907699  0.31392330  0.28548662    -0.03100
C321        C  0.79653857  0.29897659  0.31527780     0.02400
C322        C  0.84521732  0.37502908  0.35422274     0.09300
N323        N  0.80228312  0.40584170  0.29638529     0.65600
H324        H  0.76810269  0.36110448  0.25721338     0.18500
N325        N  0.79228456  0.26349304  0.32419061     0.76100
H326        H  0.83240213  0.30722169  0.35894259     0.10100
C327        C  0.84372066  0.37289421  0.39198674     0.03800
C328        C  0.86845721  0.39015359  0.41296895    -0.05000
C329        C  0.89443242  0.41055780  0.39732813    -0.23400
C330        C  0.89566625  0.41313055  0.35956576     0.13000
C331        C  0.87128107  0.39541314  0.33853863    -0.12500
N332        N  0.81650021  0.35423896  0.40950842     0.64700
H333        H  0.86664483  0.38833163  0.44184689     0.12500
N334        N  0.92270049  0.43196607  0.34201761     0.61300
H335        H  0.87348565  0.39671496  0.30965535     0.08700
O336        O  0.79257140  0.24106021  0.30008494    -0.40200
O337        O  0.78986230  0.25425540  0.35650586    -0.39300
O338        O  0.80695860  0.41839648  0.26561880    -0.39300
O339        O  0.79232848  0.42510279  0.32149735    -0.37000
O340        O  0.95395296  0.42045355  0.34201017    -0.37900
O341        O  0.91456195  0.45713933  0.32221886    -0.34100
O342        O  0.82429061  0.33232247  0.43328074    -0.35500
O343        O  0.78459144  0.36214100  0.40394939    -0.39800
C344        C  0.87838617  0.62321224  0.34322949    -0.13500
C345        C  0.85299196  0.64330231  0.36088515     0.16900
C346        C  0.85296938  0.64370061  0.39881612     0.03200
C347        C  0.87876056  0.62453784  0.41776977    -0.12000
C348        C  0.90310654  0.60334357  0.39985330    -0.03100
C349        C  0.90289384  0.60307398  0.36207544     0.02400
C350        C  0.82584140  0.66117734  0.33832114     0.09300
N351        N  0.82588619  0.66136432  0.41847134     0.65600
H352        H  0.87836258  0.62448086  0.44676705     0.18500
N353        N  0.92769588  0.58298793  0.34216558     0.76100
H354        H  0.87896883  0.62286615  0.31422403     0.10100
C355        C  0.81763604  0.69653233  0.34059015     0.03800
C356        C  0.79173146  0.71093841  0.31768796    -0.05000
C357        C  0.77490066  0.69122792  0.29156896    -0.23400
C358        C  0.78298316  0.65597731  0.28994072     0.13000
C359        C  0.80802571  0.64153005  0.31308758    -0.12500
N360        N  0.83563268  0.71819463  0.36522327     0.64700
H361        H  0.78510278  0.73789410  0.31977897     0.12500
N362        N  0.76404309  0.63350120  0.26737602     0.61300
H363        H  0.81318252  0.61423091  0.31169496     0.08700
O364        O  0.95981860  0.59083166  0.34214748    -0.40200
O365        O  0.91682935  0.56092108  0.32043324    -0.39300
O366        O  0.79392617  0.65805383  0.40991394    -0.39300
O367        O  0.83341231  0.67660309  0.44710455    -0.37000
O368        O  0.77871747  0.62326051  0.23907824    -0.37900
O369        O  0.74141407  0.61467074  0.28184711    -0.34100
O370        O  0.86882009  0.71706134  0.36743997    -0.35500
O371        O  0.81866812  0.74066501  0.38245517    -0.39800
C372        C  0.86339848  0.61285970  0.15824351    -0.13500
C373        C  0.84386937  0.63923381  0.14173685     0.16900
C374        C  0.84827128  0.64548032  0.10482503     0.03200
C375        C  0.87232435  0.62546940  0.08523142    -0.12000
C376        C  0.89262379  0.59947010  0.10183971    -0.03100
C377        C  0.88765912  0.59305151  0.13881063     0.02400
C378        C  0.81802803  0.65892518  0.16339932     0.09300
N379        N  0.82922802  0.67261292  0.08713886     0.65600
H380        H  0.87545921  0.63071920  0.05694104     0.18500
N381        N  0.90776720  0.56732353  0.15742365     0.76100
H382        H  0.85990073  0.60774953  0.18655119     0.10100
C383        C  0.78149934  0.65521574  0.15841501     0.03800
C384        C  0.75795669  0.67318163  0.18038735    -0.05000
C385        C  0.76992054  0.69468434  0.20776474    -0.23400
C386        C  0.80658277  0.70005270  0.21129014     0.13000
C387        C  0.83019911  0.68145526  0.18958215    -0.12500
N388        N  0.76789627  0.63185240  0.13260735     0.64700
H389        H  0.73008781  0.66837741  0.17742725     0.12500
N390        N  0.82016715  0.72486401  0.23570089     0.61300
H391        H  0.85830108  0.68503085  0.19258831     0.08700
O392        O  0.89250991  0.54161293  0.17031719    -0.40200
O393        O  0.93924584  0.57309113  0.16617405    -0.39300
O394        O  0.83312121  0.70309323  0.09707509    -0.39300
O395        O  0.81195005  0.66668698  0.05901209    -0.37000
O396        O  0.84975055  0.71996446  0.25055993    -0.37900
O397        O  0.80426258  0.75312690  0.23995020    -0.34100
O398        O  0.77772657  0.60088326  0.13319245    -0.35500
O399        O  0.74282735  0.64105004  0.11229014    -0.39800
C400        C  0.62259987  0.12474345  0.34365259    -0.13500
C401        C  0.64919745  0.14304200  0.36087247     0.16900
C402        C  0.65268594  0.14032172  0.39828880     0.03200
C403        C  0.62912650  0.12044861  0.41792871    -0.12000
C404        C  0.60200986  0.10243734  0.40102800    -0.03100
C405        C  0.59903218  0.10461289  0.36330572     0.02400
C406        C  0.66827388  0.16983162  0.34070663     0.09300
N407        N  0.68002052  0.15790047  0.41669171     0.65600
H408        H  0.63220565  0.11931438  0.44670994     0.18500
N409        N  0.57197453  0.08709862  0.34453042     0.76100
H410        H  0.61912903  0.12731209  0.31495168     0.10100
C411        C  0.69074267  0.16240548  0.31176978     0.03800
C412        C  0.70396320  0.18921370  0.29069156    -0.05000
C413        C  0.69472421  0.22359280  0.29755445    -0.23400
C414        C  0.67341765  0.23070161  0.32785826     0.13000
C415        C  0.66066049  0.20394026  0.34883829    -0.12500
N416        N  0.70055064  0.12786959  0.30375201     0.64700
H417        H  0.72120435  0.18306707  0.26851972     0.12500
N418        N  0.66109064  0.26439442  0.33601364     0.61300
H419        H  0.64296539  0.20988463  0.37074969     0.08700
O420        O  0.57943549  0.06009069  0.32771349    -0.40200
O421        O  0.54222894  0.10137080  0.34005418    -0.39300
O422        O  0.67236137  0.17904968  0.44091565    -0.39300
O423        O  0.71188572  0.15014862  0.41087186    -0.37000
O424        O  0.62990018  0.27247921  0.32746154    -0.37900
O425        O  0.67539617  0.28005042  0.36150482    -0.34100
O426        O  0.69545453  0.11622774  0.27280179    -0.35500
O427        O  0.71787195  0.11026279  0.32630810    -0.39800
C428        C  0.63595705  0.15051363  0.11176887    -0.13500
C429        C  0.63680083  0.14456168  0.14895911     0.16900
C430        C  0.61492913  0.11901862  0.16350535     0.03200
C431        C  0.59150889  0.10170751  0.14129129    -0.12000
C432        C  0.59044055  0.10796096  0.10433603    -0.03100
C433        C  0.61340981  0.13211975  0.08941124     0.02400
C434        C  0.65623557  0.16840576  0.17274658     0.09300
N435        N  0.61674619  0.10988587  0.20069250     0.65600
H436        H  0.57504228  0.08218461  0.15289114     0.18500
N437        N  0.61285713  0.13943701  0.05186267     0.76100
H438        H  0.65169048  0.17057587  0.10014032     0.10100
C439        C  0.69102844  0.17895761  0.16574677     0.03800
C440        C  0.70605915  0.20477341  0.18658364    -0.05000
C441        C  0.68750903  0.21972410  0.21506920    -0.23400
C442        C  0.65292664  0.20866045  0.22241837     0.13000
C443        C  0.63785269  0.18346474  0.20122974    -0.12500
N444        N  0.71158819  0.16336282  0.13806413     0.64700
H445        H  0.73258879  0.21298003  0.18075767     0.12500
N446        N  0.63151454  0.22457469  0.24923641     0.61300
H447        H  0.61060721  0.17695612  0.20592823     0.08700
O448        O  0.63962962  0.13289126  0.03301176    -0.40200
O449        O  0.58687388  0.15526965  0.03816045    -0.39300
O450        O  0.58885696  0.10603511  0.21850801    -0.39300
O451        O  0.64614243  0.10290562  0.21503116    -0.37000
O452        O  0.62800811  0.25661554  0.24958044    -0.37900
O453        O  0.61202033  0.20668691  0.26898509    -0.34100
O454        O  0.72677697  0.18169783  0.11506077    -0.35500
O455        O  0.71738333  0.13151131  0.13861452    -0.39800
C456        C  0.34139109  0.21425317  0.15323069    -0.13500
C457        C  0.33020470  0.18076824  0.15891668     0.16900
C458        C  0.30672473  0.17424336  0.18725361     0.03200
C459        C  0.29538325  0.20104416  0.20965694    -0.12000
C460        C  0.30770313  0.23449515  0.20480077    -0.03100
C461        C  0.33080628  0.24085808  0.17594386     0.02400
C462        C  0.34754275  0.15275602  0.13824143     0.09300
N463        N  0.29457343  0.14042587  0.19378961     0.65600
H464        H  0.27753352  0.19555397  0.23145844     0.18500
N465        N  0.34741163  0.27306638  0.17186111     0.76100
H466        H  0.36034932  0.21941211  0.13230240     0.10100
C467        C  0.34125008  0.14832757  0.10137232     0.03800
C468        C  0.36174197  0.12474360  0.08171160    -0.05000
C469        C  0.38913644  0.10560206  0.09806150    -0.23400
C470        C  0.39530116  0.11027994  0.13516110     0.13000
C471        C  0.37440298  0.13337208  0.15474334    -0.12500
N472        N  0.31421975  0.16780325  0.08356404     0.64700
H473        H  0.35646067  0.12179752  0.05341453     0.12500
N474        N  0.42292070  0.09209307  0.15350718     0.61300
H475        H  0.38005411  0.13710880  0.18288122     0.08700
O476        O  0.37720832  0.27701508  0.18615545    -0.40200
O477        O  0.33806739  0.29252253  0.14637862    -0.39300
O478        O  0.30521987  0.12398908  0.22099956    -0.39300
O479        O  0.27045482  0.12841187  0.17452108    -0.37000
O480        O  0.45301652  0.10516371  0.15592799    -0.37900
O481        O  0.41571731  0.06628896  0.17238612    -0.34100
O482        O  0.32226562  0.19006966  0.06054347    -0.35500
O483        O  0.28226513  0.16091667  0.08877418    -0.39800
C484        C  0.31994397  0.19337735  0.34026925    -0.13500
C485        C  0.35175206  0.17836326  0.32907732     0.16900
C486        C  0.36621737  0.18796867  0.29592537     0.03200
C487        C  0.34947717  0.21335710  0.27518143    -0.12000
C488        C  0.31806901  0.22917124  0.28678060    -0.03100
C489        C  0.30266859  0.21817551  0.31917529     0.02400
C490        C  0.36896785  0.15204524  0.35202167     0.09300
N491        N  0.39884859  0.17340719  0.28394658     0.65600
H492        H  0.36208219  0.22188661  0.25081567     0.18500
N493        N  0.26890404  0.23104996  0.33029002     0.76100
H494        H  0.30811466  0.18517871  0.36519555     0.10100
C495        C  0.38085066  0.15996044  0.38675968     0.03800
C496        C  0.39569396  0.13417276  0.40846585    -0.05000
C497        C  0.39946790  0.10077906  0.39572984    -0.23400
C498        C  0.38691405  0.09263840  0.36137486     0.13000
C499        C  0.37189581  0.11834144  0.33971059    -0.12500
N500        N  0.37982298  0.19439940  0.39944539     0.64700
H501        H  0.40599094  0.14059344  0.43461426     0.12500
N502        N  0.38835862  0.05820758  0.34869914     0.61300
H503        H  0.36191859  0.11191440  0.31343860     0.08700
O504        O  0.26411040  0.24021529  0.36225650    -0.40200
O505        O  0.24282905  0.22928951  0.30939043    -0.39300
O506        O  0.39959659  0.15502556  0.25633538    -0.39300
O507        O  0.42728453  0.18108611  0.29927463    -0.37000
O508        O  0.37050229  0.03549799  0.36408581    -0.37900
O509        O  0.40397619  0.05132059  0.31980347    -0.34100
O510        O  0.36605800  0.20115829  0.42932546    -0.35500
O511        O  0.39605904  0.21738425  0.38268437    -0.39800
C512        C  0.62375737  0.89266113  0.17102860    -0.13500
C513        C  0.64375439  0.86762631  0.15306570     0.16900
C514        C  0.64394484  0.86757349  0.11523544     0.03200
C515        C  0.62350290  0.89200142  0.09649824    -0.12000
C516        C  0.60149353  0.91526989  0.11464891    -0.03100
C517        C  0.60249892  0.91616392  0.15231683     0.02400
C518        C  0.65933540  0.83930758  0.17477763     0.09300
N519        N  0.66234778  0.84156915  0.09547434     0.65600
H520        H  0.62293734  0.89124499  0.06750972     0.18500
N521        N  0.58255704  0.94096227  0.17202433     0.76100
H522        H  0.62379895  0.89319767  0.20004087     0.10100
C523        C  0.69507904  0.82864660  0.17320208     0.03800
C524        C  0.70650998  0.80038501  0.19394897    -0.05000
C525        C  0.68333636  0.78344377  0.21708314    -0.23400
C526        C  0.64759060  0.79411083  0.21795517     0.13000
C527        C  0.63625262  0.82162213  0.19695184    -0.12500
N528        N  0.72003161  0.84641903  0.15146871     0.64700
H529        H  0.73387586  0.79212932  0.19281706     0.12500
N530        N  0.62155366  0.77663751  0.23821857     0.61300
H531        H  0.60860030  0.82902687  0.19763910     0.08700
O532        O  0.59050496  0.97212012  0.17008889    -0.40200
O533        O  0.56074600  0.93129904  0.19528885    -0.39300
O534        O  0.65732110  0.81040329  0.10240332    -0.39300
O535        O  0.67972424  0.84954228  0.06797704    -0.37000
O536        O  0.59501040  0.76556403  0.22175810    -0.37900
O537        O  0.61830358  0.78359772  0.27092337    -0.34100
O538        O  0.72137033  0.87861690  0.15231565    -0.35500
O539        O  0.74292274  0.82987907  0.13393042    -0.39800
C540        C  0.66125299  0.87789645  0.38827386    -0.13500
C541        C  0.64539436  0.86582574  0.35710140     0.16900
C542        C  0.61073658  0.87603933  0.34859628     0.03200
C543        C  0.59226440  0.89784160  0.37156649    -0.12000
C544        C  0.60761160  0.90961820  0.40345861    -0.03100
C545        C  0.64277869  0.89959118  0.41152301     0.02400
C546        C  0.66257909  0.83769729  0.33757641     0.09300
N547        N  0.59339552  0.86300138  0.31765131     0.65600
H548        H  0.56539532  0.90496298  0.36461151     0.18500
N549        N  0.66003433  0.91024305  0.44341961     0.76100
H550        H  0.68768395  0.86931275  0.39531201     0.10100
C551        C  0.68507968  0.84314080  0.30839317     0.03800
C552        C  0.69937262  0.81498367  0.29016324    -0.05000
C553        C  0.69002998  0.78135154  0.29942883    -0.23400
C554        C  0.66877345  0.77631747  0.33020949     0.13000
C555        C  0.65559500  0.80447656  0.34883264    -0.12500
N556        N  0.69249806  0.87696223  0.29618902     0.64700
H557        H  0.71665848  0.81955749  0.26770422     0.12500
N558        N  0.65698179  0.74340292  0.34119945     0.61300
H559        H  0.63841480  0.80034906  0.37155709     0.08700
O560        O  0.68104230  0.93489765  0.44210523    -0.40200
O561        O  0.65996033  0.89099395  0.47065268    -0.39300
O562        O  0.57227662  0.83859558  0.32090676    -0.39300
O563        O  0.59494092  0.87909494  0.28834473    -0.37000
O564        O  0.67262563  0.72864624  0.36697573    -0.37900
O565        O  0.62536915  0.73587920  0.33497322    -0.34100
O566        O  0.72345660  0.88805726  0.29831706    -0.35500
O567        O  0.66971000  0.89343665  0.27814441    -0.39800
C568        C  0.38516871  0.83912837  0.39288105    -0.13500
C569        C  0.37545430  0.84730436  0.35751287     0.16900
C570        C  0.38394347  0.87983875  0.34371103     0.03200
C571        C  0.40284377  0.90288923  0.36472450    -0.12000
C572        C  0.41326370  0.89445163  0.39972421    -0.03100
C573        C  0.40411934  0.86229282  0.41396315     0.02400
C574        C  0.35693608  0.82154997  0.33526090     0.09300
N575        N  0.37221171  0.89052194  0.30900217     0.65600
H576        H  0.40903676  0.92778845  0.35373944     0.18500
N577        N  0.41536355  0.85216654  0.44907430     0.76100
H578        H  0.37888078  0.81423536  0.40379261     0.10100
C579        C  0.37474403  0.80367452  0.30783656     0.03800
C580        C  0.35619700  0.78105895  0.28591530    -0.05000
C581        C  0.32040255  0.77453127  0.29174957    -0.23400
C582        C  0.30281909  0.79163447  0.31973717     0.13000
C583        C  0.32107515  0.81504423  0.34113813    -0.12500
N584        N  0.41203267  0.80675774  0.30330842     0.64700
H585        H  0.37015762  0.76750743  0.26505441     0.12500
N586        N  0.26624477  0.78591383  0.32618341     0.61300
H587        H  0.30712544  0.82851180  0.36215860     0.08700
O588        O  0.44782556  0.84861674  0.45579308    -0.40200
O589        O  0.39310996  0.84178200  0.47151481    -0.39300
O590        O  0.35029236  0.91499881  0.30630101    -0.39300
O591        O  0.38932004  0.88123588  0.28176200    -0.37000
O592        O  0.24365747  0.79320945  0.30237324    -0.37900
O593        O  0.25653337  0.77268735  0.35534289    -0.34100
O594        O  0.43250591  0.79940724  0.32899535    -0.35500
O595        O  0.42469430  0.81137992  0.27249901    -0.39800
C596        C  0.34732630  0.80294128  0.16427658    -0.13500
C597        C  0.34048302  0.83599611  0.17635461     0.16900
C598        C  0.31591092  0.84082928  0.20408208     0.03200
C599        C  0.30112901  0.81231347  0.22123718    -0.12000
C600        C  0.30996073  0.77863795  0.21085933    -0.03100
C601        C  0.33225307  0.77443809  0.18061119     0.02400
C602        C  0.35883541  0.86458185  0.15831218     0.09300
N603        N  0.30611475  0.87443062  0.21537517     0.65600
H604        H  0.28313308  0.81653233  0.24326157     0.18500
N605        N  0.34089559  0.74182108  0.16587462     0.76100
H606        H  0.36481626  0.79915079  0.14169517     0.10100
C607        C  0.39564136  0.86831538  0.16163015     0.03800
C608        C  0.41319687  0.89201762  0.14005632    -0.05000
C609        C  0.39486710  0.91199124  0.11462462    -0.23400
C610        C  0.35765227  0.90992472  0.11302522     0.13000
C611        C  0.34013420  0.88593981  0.13448591    -0.12500
N612        N  0.41568894  0.84784691  0.18641713     0.64700
H613        H  0.44160196  0.89372567  0.14216863     0.12500
N614        N  0.33715616  0.93271437  0.09086313     0.61300
H615        H  0.31180020  0.88364021  0.13223061     0.08700
O616        O  0.37292019  0.73270509  0.16537111    -0.40200
O617        O  0.32077285  0.73014320  0.14212371    -0.39300
O618        O  0.27768260  0.88793443  0.20431215    -0.39300
O619        O  0.32312623  0.88853794  0.24007442    -0.37000
O620        O  0.33951238  0.96461011  0.09489977    -0.37900
O621        O  0.31327634  0.92115746  0.07095639    -0.34100
O622        O  0.42455567  0.81769939  0.17818167    -0.35500
O623        O  0.43088674  0.86207794  0.21228819    -0.39800
C624        C  0.43424556  0.57840866  0.34442337    -0.13500
C625        C  0.40371576  0.59561466  0.35576030     0.16900
C626        C  0.39239858  0.59158445  0.39142752     0.03200
C627        C  0.41285910  0.57217153  0.41561679    -0.12000
C628        C  0.44438657  0.55593640  0.40483616    -0.03100
C629        C  0.45445930  0.55851393  0.36841481     0.02400
C630        C  0.38488478  0.61912095  0.33066410     0.09300
N631        N  0.35999912  0.60683198  0.40331576     0.65600
H632        H  0.40419615  0.57029767  0.44315432     0.18500
N633        N  0.48524739  0.54134265  0.35528399     0.76100
H634        H  0.44281845  0.58099230  0.31690633     0.10100
C635        C  0.38440533  0.65471480  0.33617765     0.03800
C636        C  0.36290087  0.67590168  0.31468908    -0.05000
C637        C  0.34245651  0.66251290  0.28685319    -0.23400
C638        C  0.34455608  0.62684382  0.28020522     0.13000
C639        C  0.36577253  0.60567718  0.30211018    -0.12500
N640        N  0.40633514  0.66969071  0.36291305     0.64700
H641        H  0.36259468  0.70320321  0.31942835     0.12500
N642        N  0.32323537  0.61104276  0.25362957     0.61300
H643        H  0.36601670  0.57829565  0.29786562     0.08700
O644        O  0.48381093  0.51014888  0.34719562    -0.40200
O645        O  0.51191914  0.55834511  0.34660026    -0.39300
O646        O  0.33119836  0.59716680  0.39015902    -0.39300
O647        O  0.35971170  0.62599468  0.43034929    -0.37000
O648        O  0.29060869  0.60855314  0.25890490    -0.37900
O649        O  0.33768057  0.59226064  0.23038928    -0.34100
O650        O  0.43916786  0.66401066  0.36264103    -0.35500
O651        O  0.39368959  0.69169814  0.38403259    -0.39800
C652        C  0.37944997  0.58882965  0.10541826    -0.13500
C653        C  0.38447755  0.62357911  0.11187841     0.16900
C654        C  0.40870416  0.64182854  0.09102168     0.03200
C655        C  0.42887878  0.62461977  0.06538985    -0.12000
C656        C  0.42527801  0.58930898  0.06009279    -0.03100
C657        C  0.39922538  0.57149377  0.07948050     0.02400
C658        C  0.36640920  0.63941487  0.14262086     0.09300
N659        N  0.41363375  0.67762637  0.09621377     0.65600
H660        H  0.44863947  0.63870693  0.05080061     0.18500
N661        N  0.39260696  0.53596672  0.07347328     0.76100
H662        H  0.36047712  0.57493989  0.12126695     0.10100
C663        C  0.32946131  0.64091090  0.14455613     0.03800
C664        C  0.31328069  0.65480762  0.17471748    -0.05000
C665        C  0.33325074  0.66846918  0.20276550    -0.23400
C666        C  0.37050788  0.66571239  0.20148705     0.13000
C667        C  0.38655580  0.65075647  0.17156300    -0.12500
N668        N  0.30809131  0.62978904  0.11541142     0.64700
H669        H  0.28476182  0.65622318  0.17550351     0.12500
N670        N  0.39257010  0.67969352  0.22875707     0.61300
H671        H  0.41504989  0.64884536  0.17037283     0.08700
O672        O  0.38890707  0.52511540  0.04196921    -0.40200
O673        O  0.38490124  0.51671375  0.09944931    -0.39300
O674        O  0.44300277  0.68831532  0.10694278    -0.39300
O675        O  0.39035065  0.69875025  0.08560033    -0.37000
O676        O  0.41892407  0.66275508  0.24013776    -0.37900
O677        O  0.38878797  0.71050524  0.23788641    -0.34100
O678        O  0.28617559  0.60628114  0.12020385    -0.35500
O679        O  0.30790190  0.64631414  0.08629076    -0.39800
C680        C  0.61922184  0.58802344  0.39191004    -0.13500
C681        C  0.61358797  0.62314032  0.38888004     0.16900
C682        C  0.58906285  0.63967047  0.41138430     0.03200
C683        C  0.56963230  0.62032144  0.43592059    -0.12000
C684        C  0.57492140  0.58477785  0.43857124    -0.03100
C685        C  0.60017224  0.56869924  0.41614364     0.02400
C686        C  0.63126950  0.64080657  0.35932406     0.09300
N687        N  0.58425022  0.67596875  0.40999583     0.65600
H688        H  0.55053613  0.63305280  0.45296248     0.18500
N689        N  0.60516536  0.53244879  0.41545103     0.76100
H690        H  0.63739539  0.57516458  0.37392178     0.10100
C691        C  0.66815760  0.64145973  0.35757962     0.03800
C692        C  0.68434099  0.65573612  0.32778816    -0.05000
C693        C  0.66449995  0.67013067  0.29948496    -0.23400
C694        C  0.62733965  0.66693338  0.30007071     0.13000
C695        C  0.61122061  0.65232762  0.33007095    -0.12500
N696        N  0.68948215  0.62849116  0.38636476     0.64700
H697        H  0.71279892  0.65711312  0.32777083     0.12500
N698        N  0.60525174  0.68027851  0.27216097     0.61300
H699        H  0.58277121  0.65036663  0.33081497     0.08700
O700        O  0.63566270  0.52003571  0.42052947    -0.40200
O701        O  0.58184973  0.51419897  0.40132872    -0.39300
O702        O  0.55454110  0.68877417  0.40192979    -0.39300
O703        O  0.60836852  0.69507125  0.42111779    -0.37000
O704        O  0.60569085  0.71172267  0.26508515    -0.37900
O705        O  0.58042087  0.66255543  0.26012217    -0.34100
O706        O  0.70964323  0.60300714  0.38146890    -0.35500
O707        O  0.69076057  0.64447653  0.41554253    -0.39800
C708        C  0.63585661  0.62225116  0.18734296    -0.13500
C709        C  0.61518532  0.64117487  0.16316288     0.16900
C710        C  0.61528504  0.67701026  0.16415821     0.03200
C711        C  0.63634826  0.69337764  0.18927473    -0.12000
C712        C  0.65721636  0.67454137  0.21376575    -0.03100
C713        C  0.65716221  0.63853375  0.21229308     0.02400
C714        C  0.59264350  0.62260595  0.13825509     0.09300
N715        N  0.59407881  0.69698634  0.13999183     0.65600
H716        H  0.63678319  0.72102314  0.18933070     0.18500
N717        N  0.68093627  0.61801403  0.23304348     0.76100
H718        H  0.63606628  0.59456061  0.18624448     0.10100
C719        C  0.60287915  0.61640221  0.10265153     0.03800
C720        C  0.58180297  0.59605625  0.08086721    -0.05000
C721        C  0.55128579  0.58108497  0.09460769    -0.23400
C722        C  0.54043292  0.58867663  0.12984552     0.13000
C723        C  0.56132455  0.60914064  0.15137878    -0.12500
N724        N  0.63549507  0.62886552  0.08905173     0.64700
H725        H  0.59034439  0.59039398  0.05386212     0.12500
N726        N  0.50799074  0.57626539  0.14392967     0.61300
H727        H  0.55324489  0.61436174  0.17863789     0.08700
O728        O  0.66942311  0.60315113  0.26060092    -0.40200
O729        O  0.70760321  0.60549678  0.21752543    -0.39300
O730        O  0.56589830  0.71082491  0.15094849    -0.39300
O731        O  0.60641850  0.70565046  0.11001578    -0.37000
O732        O  0.50828778  0.55676431  0.17096314    -0.37900
O733        O  0.47908481  0.58854685  0.13258461    -0.34100
O734        O  0.66425372  0.61757090  0.10178737    -0.35500
O735        O  0.63570671  0.64713369  0.06109840    -0.39800
C736        C  0.59811131  0.36595362  0.40126245    -0.13500
C737        C  0.62150413  0.38532784  0.38054464     0.16900
C738        C  0.62838276  0.41928201  0.39023252     0.03200
C739        C  0.61189201  0.43333946  0.42039200    -0.12000
C740        C  0.58620513  0.41499759  0.43944423    -0.03100
C741        C  0.58053165  0.38051442  0.43066514     0.02400
C742        C  0.63892864  0.36940071  0.34922209     0.09300
N743        N  0.64994667  0.44090993  0.36838890     0.65600
H744        H  0.61666518  0.45844619  0.42658132     0.18500
N745        N  0.55705022  0.35993768  0.45119098     0.76100
H746        H  0.59349806  0.33980454  0.39455299     0.10100
C747        C  0.67588892  0.36762437  0.34619180     0.03800
C748        C  0.69101494  0.35283403  0.31585557    -0.05000
C749        C  0.67044868  0.33727405  0.28935041    -0.23400
C750        C  0.63314750  0.34085395  0.29153689     0.13000
C751        C  0.61808863  0.35697547  0.32139539    -0.12500
N752        N  0.69843086  0.37866187  0.37460901     0.64700
H753        H  0.71944091  0.35079460  0.31469935     0.12500
N754        N  0.60966439  0.32678889  0.26565006     0.61300
H755        H  0.58961926  0.35923024  0.32323444     0.08700
O756        O  0.56351742  0.35403185  0.48381968    -0.40200
O757        O  0.53214949  0.34467151  0.43598630    -0.39300
O758        O  0.64535433  0.44209591  0.33491068    -0.39300
O759        O  0.67064871  0.46170521  0.38275889    -0.37000
O760        O  0.58641967  0.30645499  0.27644614    -0.37900
O761        O  0.60324500  0.34373879  0.23752783    -0.34100
O762        O  0.69324412  0.36858184  0.40629754    -0.35500
O763        O  0.72577994  0.39533259  0.36753044    -0.39800
C764        C  0.57859476  0.38625912  0.12230519    -0.13500
C765        C  0.61198837  0.39890013  0.13075429     0.16900
C766        C  0.62354866  0.42895844  0.11346839     0.03200
C767        C  0.60135894  0.44544828  0.08831473    -0.12000
C768        C  0.56862724  0.43168851  0.07866933    -0.03100
C769        C  0.55739235  0.40163913  0.09612627     0.02400
C770        C  0.63440991  0.37804267  0.15556250     0.09300
N771        N  0.65792294  0.44237177  0.12000725     0.65600
H772        H  0.61031355  0.46857541  0.07533905     0.18500
N773        N  0.52446545  0.38624140  0.08781335     0.76100
H774        H  0.56918932  0.36342767  0.13556847     0.10100
C775        C  0.65040352  0.39088796  0.18688350     0.03800
C776        C  0.66918583  0.36827961  0.20970412    -0.05000
C777        C  0.66957389  0.33274153  0.20371681    -0.23400
C778        C  0.65411189  0.32046743  0.17184498     0.13000
C779        C  0.63786598  0.34318468  0.14801406    -0.12500
N780        N  0.64627850  0.42603983  0.19699236     0.64700
H781        H  0.68216197  0.37840673  0.23307713     0.12500
N782        N  0.65248782  0.28486124  0.16377961     0.61300
H783        H  0.62621293  0.33304699  0.12385209     0.08700
O784        O  0.49912141  0.38881273  0.10945943    -0.40200
O785        O  0.52282372  0.36513039  0.06249683    -0.39300
O786        O  0.68479269  0.42299713  0.11879620    -0.39300
O787        O  0.66185622  0.47417094  0.12340857    -0.37000
O788        O  0.62653043  0.26823440  0.17503423    -0.37900
O789        O  0.66924905  0.27367470  0.13704789    -0.34100
O790        O  0.61613330  0.44013618  0.19665194    -0.35500
O791        O  0.67186180  0.44174034  0.21046837    -0.39800
C792        C  0.38839160  0.35444656  0.33040705    -0.13500
C793        C  0.38380568  0.38988500  0.32649297     0.16900
C794        C  0.35754760  0.40285304  0.30314585     0.03200
C795        C  0.33632072  0.38002861  0.28439508    -0.12000
C796        C  0.34087409  0.34443555  0.28829828    -0.03100
C797        C  0.36749905  0.33169694  0.31132549     0.02400
C798        C  0.40616175  0.41233265  0.34834135     0.09300
N799        N  0.35235692  0.43892423  0.29798676     0.65600
H800        H  0.31634445  0.39024096  0.26645372     0.18500
N801        N  0.37528243  0.29588499  0.31371378     0.76100
H802        H  0.40877063  0.34440200  0.34811947     0.10100
C803        C  0.39201923  0.43204605  0.37650904     0.03800
C804        C  0.41492809  0.44831117  0.40014033    -0.05000
C805        C  0.45168210  0.44476769  0.39670413    -0.23400
C806        C  0.46557078  0.42746493  0.36676321     0.13000
C807        C  0.44273904  0.41132733  0.34299271    -0.12500
N808        N  0.35480332  0.43388847  0.38303524     0.64700
H809        H  0.40390547  0.46210721  0.42265619     0.12500
N810        N  0.50271609  0.42346716  0.36178612     0.61300
H811        H  0.45369997  0.39650965  0.32116181     0.08700
O812        O  0.38482158  0.28004340  0.28600374    -0.40200
O813        O  0.37926145  0.28180470  0.34396070    -0.39300
O814        O  0.37798611  0.45747057  0.28953274    -0.39300
O815        O  0.32165362  0.45178722  0.29857809    -0.37000
O816        O  0.51866519  0.39804707  0.37547838    -0.37900
O817        O  0.51818698  0.44161406  0.33884041    -0.34100
O818        O  0.33738623  0.40684816  0.38648650    -0.35500
O819        O  0.34021985  0.46229324  0.38995986    -0.39800
C820        C  0.41236943  0.43190652  0.14775498    -0.13500
C821        C  0.38630689  0.41038908  0.13446750     0.16900
C822        C  0.37914364  0.41028034  0.09735904     0.03200
C823        C  0.39949903  0.43006205  0.07425714    -0.12000
C824        C  0.42761590  0.44932744  0.08729144    -0.03100
C825        C  0.43333612  0.45087713  0.12466581     0.02400
C826        C  0.36701988  0.38835298  0.15983566     0.09300
N827        N  0.35259520  0.38895501  0.08247057     0.65600
H828        H  0.39447606  0.42872178  0.04574802     0.18500
N829        N  0.46069993  0.47101197  0.13971229     0.76100
H830        H  0.41707236  0.43338917  0.17631871     0.10100
C831        C  0.38507142  0.36770724  0.18525507     0.03800
C832        C  0.36592259  0.34797450  0.20933096    -0.05000
C833        C  0.32901594  0.34702626  0.20780133    -0.23400
C834        C  0.31098255  0.36790805  0.18247878     0.13000
C835        C  0.33012180  0.38881730  0.15942601    -0.12500
N836        N  0.42278999  0.36540469  0.18608294     0.64700
H837        H  0.38018711  0.33183556  0.22825528     0.12500
N838        N  0.27339871  0.36947675  0.18034793     0.61300
H839        H  0.31595237  0.40550517  0.14093501     0.08700
O840        O  0.48934427  0.45688682  0.14932098    -0.40200
O841        O  0.45431701  0.50161943  0.14826778    -0.39300
O842        O  0.32838936  0.40196219  0.06330407    -0.39300
O843        O  0.35513887  0.35687480  0.08563328    -0.37000
O844        O  0.25787151  0.39658441  0.19011228    -0.37900
O845        O  0.25810773  0.35057027  0.15813636    -0.34100
O846        O  0.43911878  0.36899369  0.21525573    -0.35500
O847        O  0.43957644  0.35651137  0.15846819    -0.39800
O848        O  0.55459959  0.48195762  0.55036687    -0.79300
O849        O  0.56229413  0.53204532  0.96893548    -0.79300
O850        O  0.52308352  0.42407279  0.96675300    -0.79300
O851        O  0.52967799  0.55985427  0.54056438    -0.79200
O852        O  0.56262349  0.46361397  0.96636910    -0.79400
O853        O  0.51979142  0.53065288  0.59013476    -0.79300
O854        O  0.52357646  0.57288415  0.96847082    -0.79300
O855        O  0.52501673  0.43446881  0.54081245    -0.79300
C856        C  0.55090042  0.44998535  0.55509040     1.10400
C857        C  0.55485536  0.56277315  0.96256417     1.10300
C858        C  0.55381507  0.43378851  0.95866328     1.10400
C859        C  0.53180122  0.55693443  0.57505600     1.10300
O860        O  0.46199191  0.53597787  0.54881716    -0.79300
O861        O  0.50058773  0.46583658  0.91961173    -0.79500
O862        O  0.45257906  0.46035153  0.52983432    -0.79300
O863        O  0.45663432  0.54011246  0.96344405    -0.79300
O864        O  0.49866105  0.53390033  0.92334606    -0.79300
O865        O  0.48527169  0.47469879  0.57446636    -0.79300
O866        O  0.46718805  0.58408922  0.51746043    -0.79200
O867        O  0.45604246  0.45671288  0.95618923    -0.79300
Co868      Co  0.51068054  0.50957058  0.54618424     1.51500
Co869      Co  0.53080606  0.49890009  0.94720176     1.51700
Co870      Co  0.48652254  0.44785130  0.99776496     1.51600
Co871      Co  0.49184533  0.54438766  0.50271937     1.51500
O872        O  0.50773778  0.49557955  0.49531236    -1.41200
C873        C  0.45212197  0.56723885  0.54205210     1.10400
C874        C  0.46897303  0.45648825  0.92498233     1.10400
C875        C  0.45816732  0.46031417  0.56299880     1.10400
C876        C  0.46719680  0.54276802  0.93145442     1.10400
C877        C  0.57632176  0.93123767  0.58398665     0.43300
N878        N  0.56139084  0.97059701  0.54677405     0.02200
C879        C  0.40229500  0.06047550  0.54141433    -0.05700
H880        H  0.38819326  0.93469624  0.52414902     0.07700
C881        C  0.46168904  0.93448965  0.91740721    -0.06000
Co882      Co  0.49278242  0.00387065  0.56635375     0.74200
N883        N  0.43359695  0.96397517  0.53588945    -0.25200
Co884      Co  0.43394264  0.00051381  0.49535631     0.74100
C885        C  0.42892112  0.91782161  0.92704111     0.43400
N886        N  0.54338649  0.96352002  0.94664612     0.01800
N887        N  0.43805812  0.95993104  0.96294561     0.01900
N888        N  0.44137801  0.06102638  0.58706642    -0.46000
H889        H  0.52492625  0.93785969  0.61596076     0.07700
N890        N  0.45569059  0.96487033  0.56310989     0.02200
N891        N  0.43407162  0.03467226  0.95690851     0.02000
C892        C  0.42032095  0.07064349  0.91546484     0.43600
N893        N  0.56606599  0.96654219  0.97316243    -0.24600
C894        C  0.53509226  0.06625038  0.59453004    -0.05600
N895        N  0.58722735  0.94873999  0.55495880    -0.45700
N896        N  0.40904704  0.05662559  0.94648929    -0.46000
C897        C  0.56765791  0.08341570  0.58447693     0.43300
N898        N  0.45116165  0.03906191  0.56207433     0.02200
N899        N  0.56183221  0.03994477  0.96701056    -0.24700
N900        N  0.53454965  0.96882454  0.56910058    -0.25200
N901        N  0.53942516  0.03766494  0.94013528     0.01900
H902        H  0.60905077  0.06876197  0.97497343     0.07700
H903        H  0.47192815  0.05970103  0.88500428     0.07800
N904        N  0.42859810  0.03789757  0.53515513    -0.25200
N905        N  0.46505158  0.96006085  0.94067825    -0.24800
N906        N  0.55593708  0.04481015  0.54567205     0.02200
C907        C  0.41914913  0.92516624  0.57699586     0.43600
C908        C  0.59266223  0.94406707  0.96838794    -0.06100
N909        N  0.46091978  0.03366366  0.93450909    -0.24800
H910        H  0.47899478  0.92956927  0.89501196     0.07800
N911        N  0.44780045  0.94233927  0.58840638    -0.46000
H912        H  0.61633303  0.94263515  0.98450612     0.07800
C913        C  0.57664683  0.07522301  0.92317918     0.43500
C914        C  0.54138221  0.94427206  0.59338013    -0.05600
Co915      Co  0.56230364  0.00754708  0.50643146     0.73800
N916        N  0.55335546  0.94018390  0.92314665    -0.45800
C917        C  0.41082441  0.07582326  0.57607628     0.43700
N918        N  0.57921149  0.06835521  0.55417462    -0.45700
Co919      Co  0.50214447  0.99872871  0.94008878     0.73900
C920        C  0.45484053  0.05576118  0.90772085    -0.06100
C921        C  0.41000718  0.93956598  0.54179684    -0.05600
N922        N  0.52993724  0.04287982  0.56897339    -0.25200
N923        N  0.41543528  0.93528055  0.95534664    -0.45900
H924        H  0.37891004  0.06374215  0.52508406     0.07700
C925        C  0.58617209  0.06306393  0.95889341    -0.06000
Cl926      Cl  0.49813813  0.00395755  0.50088687    -0.49100
C927        C  0.58405850  0.92637333  0.93515497     0.43500
H928        H  0.51931520  0.06928563  0.61839207     0.07700
N929        N  0.54755197  0.05816849  0.91304490    -0.45800
C930        C  0.91227169  0.43137353  0.58115299     0.43300
N931        N  0.95449774  0.44313665  0.54500777     0.02200
C932        C  0.06652005  0.58194034  0.55146753    -0.05700
H933        H  0.93531725  0.61554986  0.53171357     0.07700
C934        C  0.93959274  0.54920988  0.91161620    -0.06000
Co935      Co  0.99578299  0.50334739  0.56982582     0.74200
N936        N  0.96230817  0.56724503  0.54090197    -0.25200
Co937      Co  0.00212466  0.56349723  0.50209718     0.74100
C938        C  0.92346181  0.58109518  0.92427068     0.43400
N939        N  0.96296569  0.46320867  0.93763269     0.01800
N940        N  0.96302499  0.56469782  0.96156624     0.01900
N941        N  0.06068213  0.54261895  0.59548680    -0.46000
H942        H  0.92493708  0.47784845  0.61640290     0.07700
N943        N  0.95999010  0.54412106  0.56661655     0.02200
N944        N  0.03931308  0.56345096  0.96298487     0.02000
C945        C  0.07922596  0.57866760  0.92590851     0.43600
N946        N  0.96204672  0.44029302  0.96371110    -0.24600
C947        C  0.05555014  0.45583509  0.59721433    -0.05600
N948        N  0.92951626  0.42066122  0.55157248    -0.45700
N949        N  0.06208199  0.58790739  0.95598402    -0.46000
C950        C  0.07088317  0.42297056  0.58708184     0.43300
N951        N  0.03681336  0.53857603  0.56987422     0.02200
N952        N  0.03872444  0.43888998  0.96724735    -0.24700
N953        N  0.95527841  0.46778570  0.56893618    -0.25200
N954        N  0.03983545  0.46176023  0.94110438     0.01900
H955        H  0.06818928  0.39233736  0.97791318     0.07700
H956        H  0.06957270  0.53182168  0.89031875     0.07800
N957        N  0.03939208  0.56143984  0.54392273    -0.25200
N958        N  0.96370519  0.54083960  0.93663810    -0.24800
N959        N  0.03136579  0.43778207  0.54857001     0.02200
C960        C  0.92113082  0.58228599  0.58070496     0.43600
C961        C  0.93756473  0.41706657  0.95579876    -0.06100
N962        N  0.03990486  0.53893588  0.93884783    -0.24800
H963        H  0.93502532  0.53554516  0.88701371     0.07800
N964        N  0.93605802  0.55223520  0.59098423    -0.46000
H965        H  0.93217682  0.39431434  0.97131080     0.07800
C966        C  0.08096138  0.42531914  0.92846597     0.43500
C967        C  0.92948483  0.46269270  0.59271740    -0.05600
Co968      Co  0.99434452  0.43827720  0.50689409     0.73800
N969        N  0.94065400  0.45628733  0.91126989    -0.45800
C970        C  0.08097285  0.56921427  0.58567786     0.43700
N971        N  0.05445084  0.41307700  0.55675492    -0.45700
Co972      Co  0.00161966  0.50115210  0.93787344     0.73900
C973        C  0.06466925  0.54608163  0.91454414    -0.06100
C974        C  0.93845951  0.59227554  0.54724654    -0.05600
N975        N  0.03144733  0.46281284  0.57205680    -0.25200
N976        N  0.93948136  0.58926423  0.95509642    -0.45900
H977        H  0.07398776  0.60400112  0.53581751     0.07700
C978        C  0.06396366  0.41512691  0.96182938    -0.06000
Cl979      Cl  0.99827175  0.50084967  0.50431851    -0.49100
C980        C  0.92347682  0.42754047  0.92088735     0.43500
H981        H  0.06060876  0.47130939  0.62048658     0.07700
N982        N  0.06444726  0.45435071  0.91709125    -0.45800
C983        C  0.28589485  0.29103095  0.71577014     0.46300
H984        H  0.28080913  0.29163576  0.68665856    -0.02700
C985        C  0.29701355  0.28845723  0.78428711     0.46400
H986        H  0.30201874  0.28651088  0.81339383    -0.02700
C987        C  0.31538836  0.31468933  0.72806770    -0.16400
C988        C  0.25381540  0.30227258  0.73834342    -0.16100
C989        C  0.29721940  0.25524052  0.72888806    -0.16500
C990        C  0.32145486  0.31333434  0.76441339    -0.16500
C991        C  0.25954202  0.30107735  0.77485616    -0.16100
C992        C  0.30221666  0.25392584  0.76525489    -0.16400
C993        C  0.71610068  0.27703132  0.71888085     0.46300
H994        H  0.71751087  0.27404199  0.68953231    -0.02700
C995        C  0.71622744  0.28359302  0.78763964     0.46400
H996        H  0.71760074  0.28644057  0.81700301    -0.02700
C997        C  0.69000449  0.30498222  0.73158579    -0.16400
C998        C  0.70494133  0.24429385  0.73893437    -0.16100
C999        C  0.75186690  0.28812260  0.73403027    -0.16500
C1000       C  0.68942586  0.30811339  0.76853785    -0.16500
C1001       C  0.70591370  0.24745354  0.77571883    -0.16100
C1002       C  0.75194499  0.29166665  0.77050112    -0.16400
C1003       C  0.28461204  0.71318978  0.71759197     0.46300
H1004       H  0.28028601  0.71234889  0.68838366    -0.02700
C1005       C  0.29290718  0.71549680  0.78620850     0.46400
H1006       H  0.29728880  0.71788804  0.81517097    -0.02700
C1007       C  0.31181475  0.68673398  0.73161919    -0.16400
C1008       C  0.29859387  0.74788527  0.73053869    -0.16100
C1009       C  0.25070892  0.70488745  0.73864423    -0.16500
C1010       C  0.31578257  0.68757407  0.76822127    -0.16500
C1011       C  0.30227035  0.74903289  0.76712090    -0.16100
C1012       C  0.25500583  0.70627256  0.77549049    -0.16400
C1013       C  0.70702455  0.72063164  0.72187767     0.46300
H1014       H  0.70500125  0.72251217  0.69225346    -0.02700
C1015       C  0.71150280  0.71678926  0.79070625     0.46400
H1016       H  0.71427651  0.71547041  0.82016681    -0.02700
C1017       C  0.68221650  0.69404838  0.73814606    -0.16400
C1018       C  0.74411020  0.70964300  0.73515369    -0.16100
C1019       C  0.69696441  0.75427414  0.74070830    -0.16500
C1020       C  0.68473714  0.69166343  0.77498890    -0.16500
C1021       C  0.74616546  0.70760403  0.77197622    -0.16100
C1022       C  0.69949035  0.75232828  0.77742826    -0.16400
C1023       C  0.18156711  0.67821048  0.67013901    -0.13500
C1024       C  0.17720577  0.64338148  0.67851349     0.16900
C1025       C  0.19639093  0.62932088  0.70777026     0.03200
C1026       C  0.21743366  0.65066790  0.72890114    -0.12000
C1027       C  0.22234818  0.68523663  0.72003377    -0.03100
C1028       C  0.20428631  0.69883616  0.69008825     0.02400
C1029       C  0.15317216  0.62245141  0.65568899     0.09300
N1030       N  0.19713138  0.59316992  0.71466997     0.65600
H1031       H  0.23161397  0.63981201  0.75112619     0.18500
N1032       N  0.20863233  0.73370168  0.67966689     0.76100
H1033       H  0.16735861  0.68948873  0.64773532     0.10100
C1034       C  0.12595033  0.60204467  0.66993569     0.03800
C1035       C  0.10431477  0.58322030  0.64669042    -0.05000
C1036       C  0.10786384  0.58548249  0.60925564    -0.23400
C1037       C  0.13544448  0.60542695  0.59531152     0.13000
C1038       C  0.15760147  0.62339541  0.61848137    -0.12500
N1039       N  0.11831166  0.60195738  0.70751528     0.64700
H1040       H  0.08305781  0.56847187  0.65794799     0.12500
N1041       N  0.14162583  0.60794337  0.55768958     0.61300
H1042       H  0.17877788  0.63826500  0.60720426     0.08700
O1043       O  0.22362324  0.74073253  0.65048912    -0.40200
O1044       O  0.19310228  0.75709117  0.69688016    -0.39300
O1045       O  0.20244059  0.57256563  0.68931576    -0.39300
O1046       O  0.19807529  0.58207606  0.74644444    -0.37000
O1047       O  0.14846881  0.63667062  0.54409385    -0.37900
O1048       O  0.14615597  0.58123404  0.53938530    -0.34100
O1049       O  0.11506269  0.62985774  0.72403506    -0.35500
O1050       O  0.11039704  0.57445407  0.72318842    -0.39800
C1051       C  0.21075964  0.65847295  0.85325831    -0.13500
C1052       C  0.17549153  0.66065194  0.84310941     0.16900
C1053       C  0.16566769  0.68219581  0.81427810     0.03200
C1054       C  0.19192193  0.69913747  0.79473680    -0.12000
C1055       C  0.22809394  0.69371781  0.80214238    -0.03100
C1056       C  0.23709567  0.67418527  0.83333178     0.02400
C1057       C  0.14991580  0.63994901  0.86344244     0.09300
N1058       N  0.12949743  0.68604838  0.80363520     0.65600
H1059       H  0.18400326  0.71519248  0.77231495     0.18500
N1060       N  0.27245309  0.66845815  0.84534975     0.76100
H1061       H  0.21818302  0.64334823  0.87658890     0.10100
C1062       C  0.15068589  0.60395265  0.86130779     0.03800
C1063       C  0.12729170  0.58473449  0.88175067    -0.05000
C1064       C  0.10356381  0.60051832  0.90532721    -0.23400
C1065       C  0.10298814  0.63660818  0.90774883     0.13000
C1066       C  0.12586853  0.65598132  0.88655572    -0.12500
N1067       N  0.17477510  0.58645494  0.83813972     0.64700
H1068       H  0.12827275  0.55712933  0.87964937     0.12500
N1069       N  0.07885955  0.65402174  0.93087290     0.61300
H1070       H  0.12525598  0.68360708  0.88854003     0.08700
O1071       O  0.28440962  0.68812010  0.86896221    -0.40200
O1072       O  0.28493268  0.63843520  0.84388609    -0.39300
O1073       O  0.11682947  0.71534860  0.79658039    -0.39300
O1074       O  0.11091491  0.66004712  0.79850832    -0.37000
O1075       O  0.08832060  0.66166447  0.96217364    -0.37900
O1076       O  0.05044648  0.66633072  0.91834599    -0.34100
O1077       O  0.20653392  0.58250647  0.84757656    -0.35500
O1078       O  0.16280888  0.56821862  0.81333534    -0.39800
C1079       C  0.21752808  0.34905739  0.85379668    -0.13500
C1080       C  0.18175427  0.34259310  0.84856920     0.16900
C1081       C  0.17191560  0.32016258  0.82104715     0.03200
C1082       C  0.19771596  0.30568724  0.79863233    -0.12000
C1083       C  0.23358017  0.31355267  0.80247608    -0.03100
C1084       C  0.24338489  0.33499694  0.83129238     0.02400
C1085       C  0.15514098  0.36250822  0.86944671     0.09300
N1086       N  0.13574249  0.31200313  0.81545742     0.65600
H1087       H  0.18952087  0.28851012  0.77769291     0.18500
N1088       N  0.27882253  0.34565711  0.83653427     0.76100
H1089       H  0.22541100  0.36669717  0.87447425     0.10100
C1090       C  0.15455736  0.36174270  0.90722402     0.03800
C1091       C  0.13059244  0.38273524  0.92587077    -0.05000
C1092       C  0.10699751  0.40478958  0.90762244    -0.23400
C1093       C  0.10807373  0.40592604  0.86984105     0.13000
C1094       C  0.13201673  0.38497227  0.85122011    -0.12500
N1095       N  0.17769865  0.33933967  0.92697274     0.64700
H1096       H  0.13030259  0.38157954  0.95484757     0.12500
N1097       N  0.08420441  0.42728515  0.84985942     0.61300
H1098       H  0.13268006  0.38638306  0.82224982     0.08700
O1099       O  0.29720561  0.33079306  0.86032561    -0.40200
O1100       O  0.28662999  0.37571601  0.82749344    -0.39300
O1101       O  0.12138096  0.31798496  0.78554179    -0.39300
O1102       O  0.11902970  0.29608297  0.83930049    -0.37000
O1103       O  0.09535140  0.45361445  0.83414010    -0.37900
O1104       O  0.05319717  0.41749278  0.84407384    -0.34100
O1105       O  0.19801584  0.35125942  0.95041881    -0.35500
O1106       O  0.17548136  0.30739033  0.92342470    -0.39800
C1107       C  0.14006331  0.35806040  0.61887939    -0.13500
C1108       C  0.13851095  0.36243071  0.65626385     0.16900
C1109       C  0.11346219  0.38581962  0.67034085     0.03200
C1110       C  0.09212177  0.40522469  0.64715298    -0.12000
C1111       C  0.09400648  0.40120827  0.60993651    -0.03100
C1112       C  0.11769200  0.37678837  0.59577062     0.02400
C1113       C  0.16561633  0.34554816  0.67976979     0.09300
N1114       N  0.10898460  0.38989615  0.70815377     0.65600
H1115       H  0.07319532  0.42300181  0.65860002     0.18500
N1116       N  0.12065996  0.37201592  0.55799405     0.76100
H1117       H  0.15965740  0.34100713  0.60737630     0.10100
C1118       C  0.17567064  0.31084312  0.67586985     0.03800
C1119       C  0.20440301  0.29757685  0.69545467    -0.05000
C1120       C  0.22238476  0.31762080  0.72029490    -0.23400
C1121       C  0.21144537  0.35201910  0.72546853     0.13000
C1122       C  0.18375010  0.36554243  0.70467226    -0.12500
N1123       N  0.15659692  0.28861285  0.65274259     0.64700
H1124       H  0.21242994  0.27112514  0.69175291     0.12500
N1125       N  0.22882615  0.37417933  0.75023533     0.61300
H1126       H  0.17732753  0.39249772  0.70698050     0.08700
O1127       O  0.10978890  0.34487564  0.54397491    -0.40200
O1128       O  0.13749930  0.39314021  0.53926968    -0.39300
O1129       O  0.10761201  0.41941979  0.72156295    -0.39300
O1130       O  0.10314487  0.36420910  0.72770812    -0.37000
O1131       O  0.26195261  0.37407949  0.75264683    -0.37900
O1132       O  0.21128528  0.39664195  0.76689759    -0.34100
O1133       O  0.17296407  0.26883267  0.63178988    -0.35500
O1134       O  0.12355954  0.28650146  0.65548957    -0.39800
C1135       C  0.84766148  0.36229540  0.60857254    -0.13500
C1136       C  0.84655634  0.36663742  0.64575907     0.16900
C1137       C  0.86670785  0.39246447  0.66160406     0.03200
C1138       C  0.88684004  0.41402999  0.63993302    -0.12000
C1139       C  0.88832303  0.40967706  0.60263715    -0.03100
C1140       C  0.86844337  0.38339975  0.58697720     0.02400
C1141       C  0.82207039  0.34595677  0.66744840     0.09300
N1142       N  0.86779163  0.39635586  0.69972598     0.65600
H1143       H  0.90253301  0.43335817  0.65268642     0.18500
N1144       N  0.86826926  0.37842312  0.54912364     0.76100
H1145       H  0.83183832  0.34278115  0.59620719     0.10100
C1146       C  0.79112384  0.36083317  0.68149056     0.03800
C1147       C  0.76882286  0.34122821  0.70266045    -0.05000
C1148       C  0.77671159  0.30689911  0.71062682    -0.23400
C1149       C  0.80756428  0.29169888  0.69639641     0.13000
C1150       C  0.83009691  0.31150700  0.67504116    -0.12500
N1151       N  0.78178156  0.39574716  0.67409076     0.64700
H1152       H  0.74508817  0.35302062  0.71300934     0.12500
N1153       N  0.81611602  0.25637798  0.70290244     0.61300
H1154       H  0.85387219  0.30000821  0.66415236     0.08700
O1155       O  0.84502835  0.39319541  0.53011491    -0.40200
O1156       O  0.88738462  0.35521169  0.53564602    -0.39300
O1157       O  0.87576802  0.37109851  0.71949685    -0.39300
O1158       O  0.86485984  0.42567793  0.71338043    -0.37000
O1159       O  0.79314173  0.23387581  0.69824430    -0.37900
O1160       O  0.84762640  0.24719483  0.70886578    -0.34100
O1161       O  0.77308384  0.40467667  0.64274546    -0.35500
O1162       O  0.77718770  0.41635681  0.69955592    -0.39800
C1163       C  0.82539961  0.31499143  0.83569552    -0.13500
C1164       C  0.82397240  0.35096928  0.83447318     0.16900
C1165       C  0.79954487  0.36715857  0.81122333     0.03200
C1166       C  0.77740436  0.34750773  0.78964390    -0.12000
C1167       C  0.77883546  0.31159688  0.79068290    -0.03100
C1168       C  0.80314640  0.29533736  0.81397517     0.02400
C1169       C  0.84875123  0.37136543  0.85670012     0.09300
N1170       N  0.79555902  0.40356056  0.81078876     0.65600
H1171       H  0.75767683  0.36048513  0.77337911     0.18500
N1172       N  0.80539540  0.25887297  0.81583124     0.76100
H1173       H  0.84415762  0.30214277  0.85328929     0.10100
C1174       C  0.84666536  0.37144993  0.89434728     0.03800
C1175       C  0.87139518  0.38950193  0.91465275    -0.05000
C1176       C  0.89819066  0.40833785  0.89812935    -0.23400
C1177       C  0.90019138  0.40838527  0.86030432     0.13000
C1178       C  0.87537620  0.39026176  0.84005077    -0.12500
N1179       N  0.81857367  0.35450529  0.91221504     0.64700
H1180       H  0.86906046  0.38946638  0.94354609     0.12500
N1181       N  0.92855960  0.42474612  0.84214989     0.61300
H1182       H  0.87758279  0.39000965  0.81114128     0.08700
O1183       O  0.81742444  0.24212749  0.78970471    -0.40200
O1184       O  0.79388199  0.24326592  0.84292792    -0.39300
O1185       O  0.80009695  0.42006880  0.78209723    -0.39300
O1186       O  0.78369444  0.41878201  0.83799208    -0.37000
O1187       O  0.95973938  0.41378571  0.84656773    -0.37900
O1188       O  0.92208676  0.44667842  0.81801180    -0.34100
O1189       O  0.82506102  0.32885507  0.93191659    -0.35500
O1190       O  0.78787848  0.36737033  0.91140971    -0.39800
C1191       C  0.88393660  0.63639104  0.85086049    -0.13500
C1192       C  0.85103728  0.64504281  0.86547244     0.16900
C1193       C  0.84286123  0.63416511  0.90058691     0.03200
C1194       C  0.86760270  0.61450841  0.92007023    -0.12000
C1195       C  0.89969690  0.60454149  0.90458176    -0.03100
C1196       C  0.90830909  0.61642330  0.87015141     0.02400
C1197       C  0.82480114  0.66218142  0.84182987     0.09300
N1198       N  0.80870233  0.64025638  0.91557763     0.65600
H1199       H  0.86092080  0.60530599  0.94658622     0.18500
N1200       N  0.94211883  0.60925420  0.85493241     0.76100
H1201       H  0.89052607  0.64492006  0.82407354     0.10100
C1202       C  0.81227324  0.69578030  0.84743315     0.03800
C1203       C  0.78794775  0.71052936  0.82327805    -0.05000
C1204       C  0.77533878  0.69210387  0.79381073    -0.23400
C1205       C  0.78707887  0.65793953  0.78935156     0.13000
C1206       C  0.81220727  0.64380309  0.81268613    -0.12500
N1207       N  0.82395854  0.71514299  0.87737130     0.64700
H1208       H  0.77839682  0.73638617  0.82783612     0.12500
N1209       N  0.77044715  0.63551865  0.76489661     0.61300
H1210       H  0.82072013  0.61746825  0.80905125     0.08700
O1211       O  0.96906425  0.62347788  0.86744468    -0.40200
O1212       O  0.94444691  0.59257652  0.82623342    -0.39300
O1213       O  0.78205609  0.62772841  0.90067311    -0.39300
O1214       O  0.80587428  0.65210218  0.94679067    -0.37000
O1215       O  0.78851878  0.62294492  0.73978748    -0.37900
O1216       O  0.74431295  0.61914592  0.77610114    -0.34100
O1217       O  0.85346471  0.72950934  0.87622828    -0.35500
O1218       O  0.80262346  0.72254176  0.90208854    -0.39800
C1219       C  0.86912205  0.61780059  0.65998806    -0.13500
C1220       C  0.84710979  0.64222868  0.64332004     0.16900
C1221       C  0.84954910  0.64700900  0.60588296     0.03200
C1222       C  0.87363724  0.62715464  0.58597072    -0.12000
C1223       C  0.89575483  0.60266833  0.60264673    -0.03100
C1224       C  0.89327812  0.59815192  0.64017338     0.02400
C1225       C  0.82058569  0.66106850  0.66535695     0.09300
N1226       N  0.82824676  0.67233637  0.58786198     0.65600
H1227       H  0.87516584  0.63106907  0.55729573     0.18500
N1228       N  0.91588694  0.57451681  0.65885592     0.76100
H1229       H  0.86742927  0.61385973  0.68866942     0.10100
C1230       C  0.78410509  0.65613232  0.66073853     0.03800
C1231       C  0.76002482  0.67391385  0.68245933    -0.05000
C1232       C  0.77129309  0.69593964  0.70968425    -0.23400
C1233       C  0.80783932  0.70192896  0.71338368     0.13000
C1234       C  0.83200586  0.68398693  0.69158734    -0.12500
N1235       N  0.77114432  0.63152383  0.63581809     0.64700
H1236       H  0.73227056  0.66856912  0.67952213     0.12500
N1237       N  0.82078440  0.72655871  0.73833233     0.61300
H1238       H  0.85997033  0.68833629  0.69466440     0.08700
O1239       O  0.90344010  0.54742964  0.67185451    -0.40200
O1240       O  0.94692904  0.58291984  0.66664410    -0.39300
O1241       O  0.82897222  0.70309965  0.59775919    -0.39300
O1242       O  0.81164067  0.66474101  0.55978208    -0.37000
O1243       O  0.84978841  0.72136558  0.75423439    -0.37900
O1244       O  0.80474286  0.75476830  0.74243755    -0.34100
O1245       O  0.78366035  0.60143661  0.63587120    -0.35500
O1246       O  0.74415355  0.63839973  0.61715269    -0.39800
C1247       C  0.60563475  0.14047679  0.85406252    -0.13500
C1248       C  0.64238969  0.13949142  0.85868632     0.16900
C1249       C  0.65754728  0.11532101  0.88245144     0.03200
C1250       C  0.63567724  0.09396363  0.90253041    -0.12000
C1251       C  0.59877747  0.09619556  0.89929837    -0.03100
C1252       C  0.58381690  0.11895132  0.87395278     0.02400
C1253       C  0.66369491  0.16590420  0.84057771     0.09300
N1254       N  0.69487721  0.11316050  0.88763023     0.65600
H1255       H  0.64765805  0.07603845  0.92131997     0.18500
N1256       N  0.54646678  0.12201838  0.86973235     0.76100
H1257       H  0.59375717  0.15889094  0.83570078     0.10100
C1258       C  0.68737357  0.15842807  0.81258220     0.03800
C1259       C  0.70368629  0.18539828  0.79419063    -0.05000
C1260       C  0.69512802  0.21985283  0.80163478    -0.23400
C1261       C  0.67362161  0.22675639  0.83185600     0.13000
C1262       C  0.65850687  0.19984909  0.85087415    -0.12500
N1263       N  0.69314157  0.12399941  0.80085059     0.64700
H1264       H  0.72118498  0.17935315  0.77220193     0.12500
N1265       N  0.66347838  0.26063663  0.84179004     0.61300
H1266       H  0.64084552  0.20568846  0.87284591     0.08700
O1267       O  0.53186083  0.11036444  0.84210908    -0.40200
O1268       O  0.52871206  0.13990140  0.89135590    -0.39300
O1269       O  0.71080352  0.13749007  0.90222985    -0.39300
O1270       O  0.71110382  0.08530119  0.88208949    -0.37000
O1271       O  0.63366884  0.27185951  0.83192775    -0.37900
O1272       O  0.67786700  0.27375658  0.86880557    -0.34100
O1273       O  0.66728122  0.10571444  0.79261474    -0.35500
O1274       O  0.72402655  0.11315773  0.79476371    -0.39800
C1275       C  0.63511328  0.14758605  0.61638404    -0.13500
C1276       C  0.63710959  0.13997757  0.65318668     0.16900
C1277       C  0.61598943  0.11355716  0.66702027     0.03200
C1278       C  0.59254982  0.09645586  0.64451156    -0.12000
C1279       C  0.59039649  0.10426407  0.60786642    -0.03100
C1280       C  0.61211532  0.12996902  0.59371466     0.02400
C1281       C  0.65684411  0.16319001  0.67747842     0.09300
N1282       N  0.61889948  0.10312606  0.70370431     0.65600
H1283       H  0.57690867  0.07601814  0.65555925     0.18500
N1284       N  0.60953163  0.13986397  0.55683806     0.76100
H1285       H  0.65017488  0.16849771  0.60547190     0.10100
C1286       C  0.69178834  0.17327981  0.67069228     0.03800
C1287       C  0.70690343  0.19950686  0.69102508    -0.05000
C1288       C  0.68834361  0.21532944  0.71903787    -0.23400
C1289       C  0.65368466  0.20429951  0.72631112     0.13000
C1290       C  0.63851489  0.17871339  0.70563295    -0.12500
N1291       N  0.71244023  0.15661711  0.64379286     0.64700
H1292       H  0.73345773  0.20729262  0.68509176     0.12500
N1293       N  0.63181259  0.22121454  0.75181932     0.61300
H1294       H  0.61121754  0.17237867  0.71036733     0.08700
O1295       O  0.63671590  0.13998642  0.53746735    -0.40200
O1296       O  0.58090269  0.15206955  0.54468498    -0.39300
O1297       O  0.59177592  0.10193993  0.72311517    -0.39300
O1298       O  0.64782741  0.09129374  0.71548120    -0.37000
O1299       O  0.61775907  0.24931763  0.74292098    -0.37900
O1300       O  0.61778687  0.20391640  0.77641888    -0.34100
O1301       O  0.72778854  0.17402041  0.62012319    -0.35500
O1302       O  0.71824393  0.12480805  0.64580799    -0.39800
C1303       C  0.33655644  0.20398432  0.65124067    -0.13500
C1304       C  0.32706067  0.17066207  0.65998051     0.16900
C1305       C  0.30604732  0.16508221  0.69041114     0.03200
C1306       C  0.29523524  0.19290388  0.71165692    -0.12000
C1307       C  0.30609841  0.22641692  0.70381423    -0.03100
C1308       C  0.32697962  0.23156721  0.67290451     0.02400
C1309       C  0.34418612  0.14239735  0.63980032     0.09300
N1310       N  0.29593335  0.13129675  0.70024128     0.65600
H1311       H  0.27883313  0.18815286  0.73476548     0.18500
N1312       N  0.34281300  0.26356124  0.66529369     0.76100
H1313       H  0.35379753  0.20839310  0.62862896     0.10100
C1314       C  0.33744131  0.13777493  0.60307059     0.03800
C1315       C  0.35918797  0.11592231  0.58285437    -0.05000
C1316       C  0.38821865  0.09868880  0.59848841    -0.23400
C1317       C  0.39476549  0.10335643  0.63549754     0.13000
C1318       C  0.37257021  0.12469938  0.65571561    -0.12500
N1319       N  0.30896907  0.15575143  0.58585385     0.64700
H1320       H  0.35357545  0.11296358  0.55463504     0.12500
N1321       N  0.42447772  0.08760742  0.65288115     0.61300
H1322       H  0.37873862  0.12898040  0.68365893     0.08700
O1323       O  0.37432448  0.26755105  0.67502838    -0.40200
O1324       O  0.33095597  0.28126568  0.63947552    -0.39300
O1325       O  0.30816112  0.11758486  0.72839279    -0.39300
O1326       O  0.27238740  0.11638646  0.68259851    -0.37000
O1327       O  0.45385221  0.10228412  0.65234739    -0.37900
O1328       O  0.42002706  0.06253232  0.67369723    -0.34100
O1329       O  0.31517652  0.17776165  0.56194978    -0.35500
O1330       O  0.27757007  0.14784464  0.59263474    -0.39800
C1331       C  0.31467200  0.18348248  0.83401391    -0.13500
C1332       C  0.35025795  0.17428927  0.82871868     0.16900
C1333       C  0.36898066  0.18981399  0.80029516     0.03200
C1334       C  0.35172948  0.21363877  0.77798942    -0.12000
C1335       C  0.31701190  0.22406693  0.78481330    -0.03100
C1336       C  0.29819102  0.20860167  0.81270903     0.02400
C1337       C  0.36683189  0.14710968  0.85157397     0.09300
N1338       N  0.40589868  0.18319873  0.79494257     0.65600
H1339       H  0.36622814  0.22584819  0.75660711     0.18500
N1340       N  0.26206157  0.21759206  0.81899143     0.76100
H1341       H  0.29946034  0.17088692  0.85458118     0.10100
C1342       C  0.36359625  0.14691778  0.88930875     0.03800
C1343       C  0.37957923  0.12053832  0.90946134    -0.05000
C1344       C  0.39988714  0.09497140  0.89291215    -0.23400
C1345       C  0.40215797  0.09448254  0.85517890     0.13000
C1346       C  0.38534841  0.12021740  0.83504166    -0.12500
N1347       N  0.34566089  0.17404715  0.90771259     0.64700
H1348       H  0.37779540  0.12114936  0.93839618     0.12500
N1349       N  0.42036225  0.06751766  0.83674772     0.61300
H1350       H  0.38655203  0.11901687  0.80610633     0.08700
O1351       O  0.25280926  0.22986559  0.84872071    -0.40200
O1352       O  0.23901388  0.21126674  0.79565035    -0.39300
O1353       O  0.41788407  0.17962303  0.76368491    -0.39300
O1354       O  0.42709218  0.18473774  0.82095837    -0.37000
O1355       O  0.41156562  0.03685986  0.84162975    -0.37900
O1356       O  0.44227169  0.07454358  0.81252780    -0.34100
O1357       O  0.32254970  0.16725964  0.93081417    -0.35500
O1358       O  0.35501248  0.20459380  0.90323233    -0.39800
C1359       C  0.65160870  0.88475807  0.63167207    -0.13500
C1360       C  0.63453688  0.85554053  0.64458423     0.16900
C1361       C  0.59861152  0.85083046  0.63549343     0.03200
C1362       C  0.58025159  0.87614660  0.61618077    -0.12000
C1363       C  0.59724020  0.90530321  0.60374851    -0.03100
C1364       C  0.63342656  0.90928220  0.61087012     0.02400
C1365       C  0.65284483  0.83216424  0.67061360     0.09300
N1366       N  0.58049368  0.82026971  0.64522904     0.65600
H1367       H  0.55264046  0.87256348  0.60997807     0.18500
N1368       N  0.65142179  0.93920113  0.59933163     0.76100
H1369       H  0.67873988  0.88937416  0.63898432     0.10100
C1370       C  0.68725485  0.81887251  0.66523725     0.03800
C1371       C  0.70188618  0.79551545  0.69009897    -0.05000
C1372       C  0.68231109  0.78368209  0.71942845    -0.23400
C1373       C  0.64792843  0.79727741  0.72464970     0.13000
C1374       C  0.63475535  0.82261576  0.70161284    -0.12500
N1375       N  0.70686366  0.82713956  0.63379122     0.64700
H1376       H  0.72800544  0.78494851  0.68528068     0.12500
N1377       N  0.62364109  0.78256133  0.74919749     0.61300
H1378       H  0.60874635  0.83322362  0.70684590     0.08700
O1379       O  0.67437705  0.93704753  0.57505431    -0.40200
O1380       O  0.64754706  0.96676861  0.61631690    -0.39300
O1381       O  0.55002359  0.82207548  0.65862867    -0.39300
O1382       O  0.59366974  0.79141126  0.63771266    -0.37000
O1383       O  0.59796691  0.76677620  0.73609624    -0.37900
O1384       O  0.61937315  0.79661964  0.77912547    -0.34100
O1385       O  0.73734929  0.83927914  0.63662470    -0.35500
O1386       O  0.69548851  0.81869651  0.60339400    -0.39800
C1387       C  0.65588257  0.86358890  0.90515562    -0.13500
C1388       C  0.64938938  0.86235416  0.86819625     0.16900
C1389       C  0.62243931  0.88328456  0.85341921     0.03200
C1390       C  0.60200614  0.90414519  0.87576186    -0.12000
C1391       C  0.60740669  0.90437007  0.91297969    -0.03100
C1392       C  0.63502291  0.88403873  0.92769767     0.02400
C1393       C  0.66671864  0.83505378  0.84685771     0.09300
N1394       N  0.61361693  0.88175495  0.81626053     0.65600
H1395       H  0.58111766  0.91964917  0.86384995     0.18500
N1396       N  0.64070203  0.88183069  0.96551876     0.76100
H1397       H  0.67603676  0.84701507  0.91683137     0.10100
C1398       C  0.68768423  0.84168271  0.81652228     0.03800
C1399       C  0.69920194  0.81431222  0.79502430    -0.05000
C1400       C  0.68974859  0.78041355  0.80282627    -0.23400
C1401       C  0.66992250  0.77410880  0.83429324     0.13000
C1402       C  0.65903592  0.80128215  0.85580756    -0.12500
N1403       N  0.69764267  0.87583412  0.80740470     0.64700
H1404       H  0.71547570  0.81961155  0.77194699     0.12500
N1405       N  0.65653624  0.74114936  0.84279805     0.61300
H1406       H  0.64242751  0.79603746  0.87871165     0.08700
O1407       O  0.67091114  0.88722833  0.97828626    -0.40200
O1408       O  0.61721988  0.86945019  0.98540449    -0.39300
O1409       O  0.59374424  0.85840222  0.80549176    -0.39300
O1410       O  0.61806944  0.90771466  0.79667078    -0.37000
O1411       O  0.66973367  0.72491481  0.86900432    -0.37900
O1412       O  0.62552639  0.73447139  0.83322301    -0.34100
O1413       O  0.71002638  0.89517965  0.83106220    -0.35500
O1414       O  0.69725323  0.88563553  0.77514939    -0.39800
C1415       C  0.36932465  0.84634412  0.89380918    -0.13500
C1416       C  0.37331097  0.84910055  0.85640031     0.16900
C1417       C  0.39492572  0.87534663  0.84284496     0.03200
C1418       C  0.41295153  0.89674755  0.86643515    -0.12000
C1419       C  0.40931455  0.89375252  0.90369911    -0.03100
C1420       C  0.38707794  0.86828202  0.91737856     0.02400
C1421       C  0.35550632  0.82390152  0.83228299     0.09300
N1422       N  0.39768747  0.88175024  0.80522487     0.65600
H1423       H  0.42902549  0.91680748  0.85529948     0.18500
N1424       N  0.38393425  0.86301993  0.95509930     0.76100
H1425       H  0.35317913  0.82629222  0.90487463     0.10100
C1426       C  0.37411524  0.80502594  0.80579688     0.03800
C1427       C  0.35579721  0.78249000  0.78337855    -0.05000
C1428       C  0.31958302  0.77706944  0.78749070    -0.23400
C1429       C  0.30111092  0.79543521  0.81399541     0.13000
C1430       C  0.31908678  0.81854499  0.83598917    -0.12500
N1431       N  0.41177895  0.80665876  0.80274284     0.64700
H1432       H  0.37027652  0.76772308  0.76375946     0.12500
N1433       N  0.26396800  0.79106484  0.81859847     0.61300
H1434       H  0.30436253  0.83280132  0.85588166     0.08700
O1435       O  0.40936978  0.84991915  0.97246355    -0.40200
O1436       O  0.35444725  0.86708707  0.97011915    -0.39300
O1437       O  0.37020585  0.88839568  0.78732084    -0.39300
O1438       O  0.42743257  0.88729538  0.79149769    -0.37000
O1439       O  0.24338189  0.79353958  0.79208273    -0.37900
O1440       O  0.25147735  0.78594216  0.84939687    -0.34100
O1441       O  0.43088753  0.80539012  0.83043555    -0.35500
O1442       O  0.42618333  0.80491307  0.77237801    -0.39800
C1443       C  0.35031914  0.79450297  0.65729413    -0.13500
C1444       C  0.34465768  0.82854553  0.66660718     0.16900
C1445       C  0.32141730  0.83641291  0.69468912     0.03200
C1446       C  0.30549498  0.80990507  0.71404523    -0.12000
C1447       C  0.31218740  0.77526506  0.70584530    -0.03100
C1448       C  0.33424588  0.76793241  0.67605632     0.02400
C1449       C  0.36252350  0.85516514  0.64537641     0.09300
N1450       N  0.31328674  0.87115698  0.70334286     0.65600
H1451       H  0.28778843  0.81649308  0.73568291     0.18500
N1452       N  0.34200456  0.73397104  0.66453199     0.76100
H1453       H  0.36761573  0.78842019  0.63509342     0.10100
C1454       C  0.39449925  0.86939094  0.65653749     0.03800
C1455       C  0.41220740  0.89219579  0.63397032    -0.05000
C1456       C  0.39879483  0.90099697  0.59988087    -0.23400
C1457       C  0.36634658  0.88662077  0.58912179     0.13000
C1458       C  0.34882467  0.86395364  0.61181005    -0.12500
N1459       N  0.40980863  0.86012649  0.69024749     0.64700
H1460       H  0.43693027  0.90260258  0.64306292     0.12500
N1461       N  0.35043121  0.89440335  0.55538874     0.61300
H1462       H  0.32437310  0.85276969  0.60293906     0.08700
O1463       O  0.37360944  0.72363791  0.66628757    -0.40200
O1464       O  0.32231007  0.72115170  0.64107551    -0.39300
O1465       O  0.29411445  0.88896466  0.68256987    -0.39300
O1466       O  0.32120321  0.88260165  0.73372143    -0.37000
O1467       O  0.32810741  0.91857865  0.55324313    -0.37900
O1468       O  0.35193648  0.87254701  0.53074757    -0.34100
O1469       O  0.42854481  0.83329654  0.69285979    -0.35500
O1470       O  0.40990553  0.88156291  0.71529717    -0.39800
C1471       C  0.43390352  0.58678860  0.84648921    -0.13500
C1472       C  0.40134494  0.59949936  0.85811152     0.16900
C1473       C  0.38915013  0.59125830  0.89249809     0.03200
C1474       C  0.41047210  0.57167580  0.91548885    -0.12000
C1475       C  0.44398962  0.55986993  0.90464607    -0.03100
C1476       C  0.45531927  0.56706668  0.86932706     0.02400
C1477       C  0.38070911  0.62204157  0.83424742     0.09300
N1478       N  0.35518803  0.60266076  0.90434899     0.65600
H1479       H  0.40085173  0.56623565  0.94216878     0.18500
N1480       N  0.48870070  0.55532505  0.85633017     0.76100
H1481       H  0.44307449  0.59288485  0.81978064     0.10100
C1482       C  0.38126407  0.65771363  0.83816115     0.03800
C1483       C  0.36008570  0.67842263  0.81612130    -0.05000
C1484       C  0.33839956  0.66406079  0.78990106    -0.23400
C1485       C  0.33813552  0.62805260  0.78598950     0.13000
C1486       C  0.35958242  0.60750986  0.80799573    -0.12500
N1487       N  0.40363900  0.67315783  0.86405419     0.64700
H1488       H  0.36091879  0.70592577  0.81921240     0.12500
N1489       N  0.31394070  0.61160546  0.76263707     0.61300
H1490       H  0.35872225  0.57993985  0.80555377     0.08700
O1491       O  0.49007462  0.52984919  0.83584568    -0.40200
O1492       O  0.51522048  0.57418273  0.85921082    -0.39300
O1493       O  0.32823637  0.58604130  0.89583993    -0.39300
O1494       O  0.35276020  0.62557024  0.92785736    -0.37000
O1495       O  0.28242318  0.60869908  0.77255638    -0.37900
O1496       O  0.32574267  0.59153723  0.73907035    -0.34100
O1497       O  0.43577151  0.67743076  0.85700595    -0.35500
O1498       O  0.39042179  0.68681998  0.89151207    -0.39800
C1499       C  0.37878688  0.58025889  0.60954394    -0.13500
C1500       C  0.38381640  0.61458093  0.61850677     0.16900
C1501       C  0.40835796  0.63395437  0.59911696     0.03200
C1502       C  0.42870512  0.61840064  0.57255128    -0.12000
C1503       C  0.42486665  0.58369510  0.56450020    -0.03100
C1504       C  0.39868306  0.56467146  0.58233205     0.02400
C1505       C  0.36494078  0.62948481  0.64947966     0.09300
N1506       N  0.41308183  0.66943442  0.60638481     0.65600
H1507       H  0.44862692  0.63330380  0.55913174     0.18500
N1508       N  0.39171628  0.52989287  0.57285244     0.76100
H1509       H  0.35952430  0.56548218  0.62405808     0.10100
C1510       C  0.32796280  0.63206815  0.65035628     0.03800
C1511       C  0.31141361  0.64879504  0.67882906    -0.05000
C1512       C  0.33108223  0.66394763  0.70626749    -0.23400
C1513       C  0.36826399  0.65944553  0.70651697     0.13000
C1514       C  0.38455432  0.64176346  0.67837765    -0.12500
N1515       N  0.30699920  0.61970688  0.62149349     0.64700
H1516       H  0.28294472  0.65133473  0.67858441     0.12500
N1517       N  0.39026863  0.67480931  0.73302238     0.61300
H1518       H  0.41302787  0.63918251  0.67804032     0.08700
O1519       O  0.38959702  0.52159689  0.54033204    -0.40200
O1520       O  0.38306757  0.50855805  0.59661955    -0.39300
O1521       O  0.44260501  0.67981547  0.61703015    -0.39300
O1522       O  0.38947277  0.69085844  0.59730782    -0.37000
O1523       O  0.41598142  0.65807895  0.74613660    -0.37900
O1524       O  0.38714324  0.70626479  0.73976617    -0.34100
O1525       O  0.28476406  0.59666306  0.62718084    -0.35500
O1526       O  0.30750162  0.63473108  0.59151561    -0.39800
C1527       C  0.62896631  0.58829241  0.90130375    -0.13500
C1528       C  0.61889636  0.62174562  0.89241901     0.16900
C1529       C  0.59100007  0.63768331  0.91112995     0.03200
C1530       C  0.57144321  0.61863262  0.93574883    -0.12000
C1531       C  0.58040885  0.58434827  0.94331841    -0.03100
C1532       C  0.61106513  0.56985596  0.92738638     0.02400
C1533       C  0.63569855  0.63798262  0.86114315     0.09300
N1534       N  0.58237890  0.67304704  0.90535344     0.65600
H1535       H  0.54875946  0.63049633  0.94844083     0.18500
N1536       N  0.62370063  0.53603617  0.93595046     0.76100
H1537       H  0.65049356  0.57596122  0.88714746     0.10100
C1538       C  0.67251722  0.63971652  0.85834401     0.03800
C1539       C  0.68749667  0.65383009  0.82779530    -0.05000
C1540       C  0.66660602  0.66790192  0.80007416    -0.23400
C1541       C  0.62965212  0.66347368  0.80155293     0.13000
C1542       C  0.61472809  0.64845321  0.83203738    -0.12500
N1543       N  0.69506558  0.62851872  0.88693507     0.64700
H1544       H  0.71588195  0.65596279  0.82706723     0.12500
N1545       N  0.60652312  0.67580682  0.77400887     0.61300
H1546       H  0.58639184  0.64568388  0.83340265     0.08700
O1547       O  0.63270271  0.52883183  0.96769028    -0.40200
O1548       O  0.63296173  0.51617006  0.91110617    -0.39300
O1549       O  0.55109769  0.68213510  0.89814192    -0.39300
O1550       O  0.60495908  0.69548144  0.91206788    -0.37000
O1551       O  0.60569401  0.70718405  0.76646726    -0.37900
O1552       O  0.58219611  0.65705440  0.76266344    -0.34100
O1553       O  0.71622565  0.60377665  0.88223378    -0.35500
O1554       O  0.69556425  0.64473213  0.91601049    -0.39800
C1555       C  0.63465021  0.62467630  0.68711101    -0.13500
C1556       C  0.61300900  0.64448354  0.66449873     0.16900
C1557       C  0.61386258  0.68029785  0.66644331     0.03200
C1558       C  0.63643421  0.69565180  0.69098317    -0.12000
C1559       C  0.65777470  0.67581404  0.71421612    -0.03100
C1560       C  0.65719806  0.63995110  0.71161879     0.02400
C1561       C  0.58938446  0.62655468  0.63989607     0.09300
N1562       N  0.59146496  0.70125543  0.64435759     0.65600
H1563       H  0.63696060  0.72329442  0.69225222     0.18500
N1564       N  0.68160319  0.61867895  0.73074580     0.76100
H1565       H  0.63460119  0.59704110  0.68510434     0.10100
C1566       C  0.59479508  0.62605436  0.60255216     0.03800
C1567       C  0.57442669  0.60448979  0.58125555    -0.05000
C1568       C  0.54921654  0.58313603  0.59683733    -0.23400
C1569       C  0.54215536  0.58590850  0.63384385     0.13000
C1570       C  0.56257152  0.60714568  0.65496895    -0.12500
N1571       N  0.62217030  0.64548707  0.58625037     0.64700
H1572       H  0.57977528  0.60299962  0.55282913     0.12500
N1573       N  0.51414277  0.56756628  0.65037256     0.61300
H1574       H  0.55778763  0.60820565  0.68354148     0.08700
O1575       O  0.67054186  0.60094015  0.75658193    -0.40200
O1576       O  0.70929338  0.60913992  0.71482216    -0.39300
O1577       O  0.55900623  0.70375622  0.65127665    -0.39300
O1578       O  0.60480428  0.72091376  0.62136974    -0.37000
O1579       O  0.52078822  0.54663557  0.67542169    -0.37900
O1580       O  0.48254221  0.57540152  0.64303856    -0.34100
O1581       O  0.65395552  0.63946038  0.59443831    -0.35500
O1582       O  0.61506180  0.66510697  0.56018236    -0.39800
C1583       C  0.59076463  0.36358583  0.89860733    -0.13500
C1584       C  0.61096071  0.38317939  0.87493889     0.16900
C1585       C  0.61313610  0.41861349  0.87973156     0.03200
C1586       C  0.59631778  0.43379783  0.90882991    -0.12000
C1587       C  0.57561073  0.41460693  0.93257275    -0.03100
C1588       C  0.57262863  0.37911656  0.92704810     0.02400
C1589       C  0.63087717  0.36641656  0.84596781     0.09300
N1590       N  0.63041441  0.43969226  0.85389528     0.65600
H1591       H  0.59740598  0.46125782  0.91127267     0.18500
N1592       N  0.55105403  0.35867375  0.94966441     0.76100
H1593       H  0.58892567  0.33624177  0.89480562     0.10100
C1594       C  0.66778409  0.36429779  0.84701630     0.03800
C1595       C  0.68597440  0.34864470  0.81896860    -0.05000
C1596       C  0.66817762  0.33296519  0.79045726    -0.23400
C1597       C  0.63074677  0.33645913  0.78898975     0.13000
C1598       C  0.61284667  0.35354261  0.81657852    -0.12500
N1599       N  0.68691254  0.37550169  0.87775467     0.64700
H1600       H  0.71426051  0.34632981  0.82124978     0.12500
N1601       N  0.60958348  0.32015461  0.76261995     0.61300
H1602       H  0.58434536  0.35575254  0.81566465     0.08700
O1603       O  0.56487563  0.34217384  0.97534490    -0.40200
O1604       O  0.51981453  0.35250063  0.94037685    -0.39300
O1605       O  0.61898550  0.44122661  0.82216044    -0.39300
O1606       O  0.65428936  0.45972009  0.86361942    -0.37000
O1607       O  0.58589928  0.30035524  0.77353622    -0.37900
O1608       O  0.60460044  0.33521300  0.73308251    -0.34100
O1609       O  0.68182292  0.36149448  0.90778996    -0.35500
O1610       O  0.71177887  0.39626618  0.87417403    -0.39800
C1611       C  0.58340096  0.38666576  0.62594637    -0.13500
C1612       C  0.61841678  0.39634953  0.63095374     0.16900
C1613       C  0.63138522  0.42444242  0.61127707     0.03200
C1614       C  0.60890227  0.44201576  0.58702574    -0.12000
C1615       C  0.57424205  0.43107974  0.58076384    -0.03100
C1616       C  0.56152850  0.40312111  0.60097893     0.02400
C1617       C  0.64046219  0.37486845  0.65555865     0.09300
N1618       N  0.66741861  0.43450268  0.61444738     0.65600
H1619       H  0.61899216  0.46350318  0.57199229     0.18500
N1620       N  0.52619674  0.39132621  0.59729181     0.76100
H1621       H  0.57304336  0.36540480  0.64119754     0.10100
C1622       C  0.65666239  0.38747186  0.68681654     0.03800
C1623       C  0.67332935  0.36442717  0.71078454    -0.05000
C1624       C  0.67300677  0.32885708  0.70501156    -0.23400
C1625       C  0.65796684  0.31678423  0.67281291     0.13000
C1626       C  0.64238651  0.33978034  0.64863470    -0.12500
N1627       N  0.65508923  0.42309456  0.69551136     0.64700
H1628       H  0.68575396  0.37437355  0.73457209     0.12500
N1629       N  0.65574744  0.28116215  0.66496155     0.61300
H1630       H  0.63021819  0.32984073  0.62464620     0.08700
O1631       O  0.50570189  0.39293405  0.62378244    -0.40200
O1632       O  0.51875730  0.37176687  0.57173080    -0.39300
O1633       O  0.69196813  0.41264369  0.61098704    -0.39300
O1634       O  0.67487018  0.46571661  0.61708668    -0.37000
O1635       O  0.62793868  0.26580581  0.67321213    -0.37900
O1636       O  0.67463550  0.26907199  0.64018597    -0.34100
O1637       O  0.62583037  0.43886847  0.69589236    -0.35500
O1638       O  0.68223027  0.43777581  0.70696794    -0.39800
C1639       C  0.38910878  0.34709838  0.83028320    -0.13500
C1640       C  0.38756077  0.38216601  0.82271707     0.16900
C1641       C  0.36620809  0.39443200  0.79463507     0.03200
C1642       C  0.34530969  0.37170738  0.77563001    -0.12000
C1643       C  0.34589849  0.33646313  0.78367113    -0.03100
C1644       C  0.36893218  0.32414757  0.81066279     0.02400
C1645       C  0.40706838  0.40560322  0.84582282     0.09300
N1646       N  0.36536758  0.42991366  0.78536686     0.65600
H1647       H  0.32823413  0.38187650  0.75481858     0.18500
N1648       N  0.37425581  0.28837205  0.81659756     0.76100
H1649       H  0.40630275  0.33750411  0.85139618     0.10100
C1650       C  0.39135346  0.41857833  0.87696050     0.03800
C1651       C  0.41152530  0.43686913  0.90131480    -0.05000
C1652       C  0.44766606  0.44214112  0.89545321    -0.23400
C1653       C  0.46291210  0.43043281  0.86309464     0.13000
C1654       C  0.44244780  0.41231513  0.83862007    -0.12500
N1655       N  0.35543131  0.41148547  0.88517441     0.64700
H1656       H  0.39905152  0.44574527  0.92566839     0.12500
N1657       N  0.49958816  0.43425701  0.85584012     0.61300
H1658       H  0.45461224  0.40211973  0.81466098     0.08700
O1659       O  0.36513326  0.27527076  0.84603174    -0.40200
O1660       O  0.39614363  0.27255742  0.79720920    -0.39300
O1661       O  0.38621977  0.44105923  0.76194139    -0.39300
O1662       O  0.34070011  0.44893281  0.79661510    -0.37000
O1663       O  0.52095167  0.41063355  0.86463547    -0.37900
O1664       O  0.50936095  0.45725869  0.83441368    -0.34100
O1665       O  0.34809536  0.38596120  0.90441590    -0.35500
O1666       O  0.33139394  0.43246850  0.87615546    -0.39800
C1667       C  0.41942030  0.42060391  0.64650509    -0.13500
C1668       C  0.40030909  0.39389826  0.63149976     0.16900
C1669       C  0.39868044  0.39036418  0.59410432     0.03200
C1670       C  0.41610465  0.41362443  0.57227208    -0.12000
C1671       C  0.43623799  0.43981963  0.58713277    -0.03100
C1672       C  0.43765863  0.44339271  0.62472949     0.02400
C1673       C  0.37930447  0.37205023  0.65508940     0.09300
N1674       N  0.38047423  0.36254924  0.57807140     0.65600
H1675       H  0.41525563  0.41004945  0.54355219     0.18500
N1676       N  0.45712475  0.47008573  0.64122343     0.76100
H1677       H  0.41996351  0.42389133  0.67528326     0.10100
C1678       C  0.39490295  0.35290102  0.68302029     0.03800
C1679       C  0.37351963  0.33468678  0.70642465    -0.05000
C1680       C  0.33662081  0.33510663  0.70253786    -0.23400
C1681       C  0.32119958  0.35426357  0.67415050     0.13000
C1682       C  0.34269107  0.37252921  0.65092085    -0.12500
N1683       N  0.43237157  0.35105956  0.68734976     0.64700
H1684       H  0.38597720  0.31918664  0.72714110     0.12500
N1685       N  0.28392079  0.35718071  0.66924715     0.61300
H1686       H  0.33058531  0.38792338  0.62987542     0.08700
O1687       O  0.48888254  0.46477683  0.64999821    -0.40200
O1688       O  0.44093724  0.49591218  0.65334803    -0.39300
O1689       O  0.35699005  0.36835344  0.55475085    -0.39300
O1690       O  0.39018233  0.33214610  0.58465834    -0.37000
O1691       O  0.26872735  0.38460320  0.67853179    -0.37900
O1692       O  0.26964822  0.33940150  0.64534070    -0.34100
O1693       O  0.44618599  0.35876164  0.71691727    -0.35500
O1694       O  0.45134091  0.33848067  0.66291008    -0.39800
loop_ 
_geom_bond_atom_site_label_1 
_geom_bond_atom_site_label_2 
_geom_bond_distance 
_geom_bond_site_symmetry_2 
_ccdc_geom_bond_type 
O1            C9   1.270       .  A
O1          Co21   1.964       .  S
O2           C10   1.253       .  A
O2          Co22   1.958       .  S
O3           C11   1.272       .  A
O3          Co23   2.029       .  S
O4           C12   1.292       .  A
O4          Co24   2.103       .  S
O5           C11   1.256       .  A
O5          Co22   1.960       .  S
O6           C12   1.260       .  A
O6          Co21   1.884       .  S
O7           C10   1.265       .  A
O7         Co871   2.015       .  S
O8            C9   1.281       .  A
O8         Co870   2.026   1_554  S
C9          C768   1.485       .  S
C10         C684   1.475       .  S
C11         C740   1.488       .  S
C12         C721   1.470       .  S
O13          C26   1.295       .  A
O13         Co21   2.099       .  S
O14          C27   1.276       .  A
O14         Co22   2.027       .  S
O15          C28   1.258       .  A
O15        Co870   1.981   1_554  S
O16          C29   1.270       .  A
O16        Co871   1.972       .  S
O17          C29   1.278       .  A
O17         Co22   2.029       .  S
O18          C28   1.255       .  A
O18         Co21   1.979       .  S
O19          C26   1.269       .  A
O19         Co24   1.889       .  S
O20          C27   1.264       .  A
O20         Co23   1.959       .  S
Co21         O25   1.982   1_554  S
Co22        O872   1.998       .  S
Co23        O855   2.026       .  S
Co23        O862   1.971       .  S
Co23        O872   2.025       .  S
Co24        O854   2.013   1_554  S
Co24        O863   1.957   1_554  S
Co24         O25   2.008   1_554  S
O25        Co869   1.998       .  S
O25        Co870   2.032       .  S
C26         C656   1.477       .  S
C27         C805   1.479       .  S
C28         C824   1.477       .  S
C29         C628   1.491       .  S
C30          C67   1.467       .  S
C30         C516   1.477       .  S
C30          N48   1.345       .  A
N31          N48   1.322       .  A
N31          N53   1.321       .  A
N31         Co68   2.069   1_565  S
C32          C70   1.472       .  S
C32          N57   1.349       .  A
C32          H77   1.081       .  S
H33          C74   1.081       .  S
C34          C38   1.461       .  S
C34          N58   1.343       .  A
C34          H63   1.082       .  S
Co35         N53   2.095   1_545  S
Co35         N43   2.095   1_545  S
Co35         N75   2.088       .  S
Co35         N51   2.089       .  S
Co35        Cl79   2.451       .  S
N36          C74   1.341       .  A
N36          N43   1.322       .  A
N36         Co37   2.091   1_565  S
Co37         N57   2.113       .  S
Co37        N887   2.121   1_544  S
Co37        N891   2.095   1_554  S
Co37        Cl79   2.465       .  S
C38         C572   1.484       .  S
C38          N76   1.353       .  A
N39          N46   1.318       .  A
N39          N69   1.320       .  A
N39         Co72   2.073   1_565  S
N40          N58   1.321       .  A
N40          N76   1.329       .  A
N40        Co884   2.103   1_565  S
N41          C70   1.350       .  A
N41          N51   1.324       .  A
H42          C67   1.081       .  S
N43          N64   1.326       .  A
N44          N62   1.321       .  A
N44          N49   1.326       .  A
N44        Co884   2.089       .  S
C45          C73   1.454       .  S
C45         C497   1.467       .  S
C45          N49   1.349       .  A
N46          C61   1.340       .  A
N46        Co915   2.085   1_565  S
C47          C50   1.463       .  S
C47          N75   1.340       .  A
C47          H81   1.082       .  S
C50         C432   1.478       .  S
C50          N71   1.350       .  A
N51          N57   1.322       .  A
N52          C78   1.337       .  A
N52          N54   1.320       .  A
N52        Co915   2.077       .  S
N53          C67   1.343       .  A
N54          N82   1.328       .  A
N54         Co72   2.102       .  S
H55          C78   1.081       .  S
H56          C73   1.082       .  S
N58         Co72   2.094   1_565  S
N59          N71   1.325       .  A
N59          N75   1.320       .  A
N59         Co68   2.083       .  S
C60          C74   1.464       .  S
C60         C609   1.488       .  S
C60          N64   1.352       .  A
C61          C80   1.469       .  S
C61          H65   1.078       .  S
N62          C73   1.338       .  A
N62         Co72   2.076       .  S
C66          C78   1.461       .  S
C66         C404   1.492       .  S
C66          N82   1.356       .  A
Co68        N893   2.081   1_544  S
Co68        N899   2.070   1_554  S
Co68        Cl79   2.453       .  S
N69          C80   1.350       .  A
C70         C469   1.498       .  S
Co72       Cl926   2.458       .  S
Cl79       Co919   2.447   1_544  S
C80         C544   1.486       .  S
C83         C120   1.462       .  S
C83         C292   1.480       .  S
C83         N101   1.351       .  A
N84         N101   1.325       .  A
N84         N106   1.320       .  A
N84        Co121   2.086       .  S
C85         C123   1.465       .  S
C85         N110   1.341       .  A
C85         H130   1.081       .  S
H86         C127   1.081       .  S
C87          C91   1.462       .  S
C87         N111   1.339       .  A
C87         H116   1.081       .  S
Co88        N106   2.084       .  S
Co88         N96   2.081       .  S
Co88        N128   2.071   1_655  S
Co88        N104   2.099   1_655  S
Co88       Cl132   2.452       .  S
N89         C127   1.342       .  A
N89          N96   1.317       .  A
N89         Co90   2.085   1_655  S
Co90        N110   2.088       .  S
Co90        N940   2.073   1_454  S
Co90        N944   2.081   1_554  S
Co90       Cl132   2.451   1_455  S
C91         C348   1.485       .  S
C91         N129   1.352       .  A
N92          N99   1.321       .  A
N92         N122   1.327       .  A
N92        Co125   2.095   1_655  S
N93         N111   1.322       .  A
N93         N129   1.327       .  A
N93        Co937   2.095   1_655  S
N94         C123   1.355       .  A
N94         N104   1.327       .  A
H95         C120   1.081       .  S
N96         N117   1.325       .  A
N97         N115   1.321       .  A
N97         N102   1.325       .  A
N97        Co937   2.090       .  S
C98         C126   1.467       .  S
C98         C217   1.492       .  S
C98         N102   1.351       .  A
N99         C114   1.343       .  A
N99        Co968   2.096       .  S
C100        C103   1.457       .  S
C100        N128   1.336       .  A
C100        H134   1.082       .  S
C103        C264   1.482       .  S
C103        N124   1.354       .  A
N104        N110   1.319       .  A
N105        C131   1.339       .  A
N105        N107   1.321       .  A
N105       Co968   2.081   1_455  S
N106        C120   1.337       .  A
N107        N135   1.328       .  A
N107       Co125   2.101       .  S
H108        C131   1.082       .  S
H109        C126   1.081       .  S
N111       Co125   2.090   1_655  S
N112        N124   1.328       .  A
N112        N128   1.320       .  A
N112       Co121   2.097   1_455  S
C113        C127   1.465       .  S
C113        C376   1.489       .  S
C113        N117   1.351       .  A
C114        C133   1.465       .  S
C114        H118   1.082       .  S
N115        C126   1.341       .  A
N115       Co125   2.091       .  S
C119        C131   1.457       .  S
C119        C245   1.485       .  S
C119        N135   1.355       .  A
Co121       N946   2.096   1_554  S
Co121       N952   2.088   1_654  S
Co121      Cl132   2.453       .  S
N122        C133   1.353       .  A
C123        C189   1.493       .  S
Co125      Cl979   2.457   1_455  S
Cl132      Co972   2.460   1_654  S
C133        C329   1.492       .  S
C136        H137   1.107       .  S
C136        C142   1.541       .  S
C136        C141   1.543       .  S
C136        C140   1.534       .  S
C138        H139   1.105       .  S
C138        C144   1.537       .  S
C138        C143   1.542       .  S
C138        C145   1.543       .  S
C140        C143   1.374       .  D
C140        C833   1.486       .  S
C141        C144   1.381       .  D
C141        C273   1.486       .  S
C142        C145   1.375       .  D
C142        C460   1.503       .  S
C143        C796   1.491       .  S
C144        C236   1.502       .  S
C145        C488   1.489       .  S
C146        H147   1.105       .  S
C146        C152   1.536       .  S
C146        C151   1.538       .  S
C146        C150   1.543       .  S
C148        H149   1.106       .  S
C148        C154   1.536       .  S
C148        C153   1.553       .  S
C148        C155   1.538       .  S
C150        C153   1.385       .  D
C150        C777   1.494       .  S
C151        C154   1.377       .  D
C151        C441   1.493       .  S
C152        C155   1.375       .  D
C152        C301   1.496       .  S
C153        C749   1.499       .  S
C154        C413   1.505       .  S
C155        C320   1.493       .  S
C156        H157   1.104       .  S
C156        C162   1.540       .  S
C156        C161   1.540       .  S
C156        C160   1.542       .  S
C158        H159   1.103       .  S
C158        C164   1.544       .  S
C158        C163   1.547       .  S
C158        C165   1.545       .  S
C160        C163   1.379       .  D
C160        C665   1.485       .  S
C161        C164   1.376       .  D
C161        C600   1.510       .  S
C162        C165   1.382       .  D
C162        C180   1.501       .  S
C163        C637   1.497       .  S
C164        C581   1.496       .  S
C165        C208   1.509       .  S
C166        H167   1.111       .  S
C166        C172   1.532       .  S
C166        C171   1.542       .  S
C166        C170   1.537       .  S
C168        H169   1.106       .  S
C168        C174   1.530       .  S
C168        C173   1.543       .  S
C168        C175   1.535       .  S
C170        C173   1.381       .  D
C170        C712   1.482       .  S
C171        C174   1.380       .  D
C171        C385   1.495       .  S
C172        C175   1.376       .  D
C172        C525   1.488       .  S
C173        C693   1.489       .  S
C174        C357   1.492       .  S
C175        C553   1.496       .  S
C176        H186   1.083       .  S
C176        C177   1.409       .  A
C176        C181   1.407       .  A
C177        C182   1.502       .  S
C177        C178   1.418       .  A
C178        C179   1.407       .  A
C178        N183   1.438       .  S
C179        H184   1.076       .  S
C179        C180   1.403       .  A
C180        C181   1.407       .  A
C181        N185   1.428       .  S
C182        C187   1.417       .  A
C182        C191   1.405       .  A
N183        O198   1.262       .  A
N183        O199   1.262       .  A
N185        O196   1.262       .  A
N185        O197   1.262       .  A
C187        C188   1.405       .  A
C187        N192   1.431       .  S
C188        H193   1.084       .  S
C188        C189   1.403       .  A
C189        C190   1.416       .  A
C190        C191   1.407       .  A
C190        N194   1.431       .  S
C191        H195   1.084       .  S
N192        O202   1.261       .  A
N192        O203   1.262       .  A
N194        O200   1.262       .  A
N194        O201   1.262       .  A
C204        H214   1.085       .  S
C204        C205   1.395       .  A
C204        C209   1.400       .  A
C205        C210   1.481       .  S
C205        C206   1.406       .  A
C206        C207   1.404       .  A
C206        N211   1.429       .  S
C207        H212   1.083       .  S
C207        C208   1.411       .  A
C208        C209   1.424       .  A
C209        N213   1.427       .  S
C210        C215   1.408       .  A
C210        C219   1.397       .  A
N211        O226   1.262       .  A
N211        O227   1.261       .  A
N213        O224   1.262       .  A
N213        O225   1.261       .  A
C215        C216   1.403       .  A
C215        N220   1.428       .  S
C216        H221   1.082       .  S
C216        C217   1.405       .  A
C217        C218   1.416       .  A
C218        C219   1.402       .  A
C218        N222   1.426       .  S
C219        H223   1.084       .  S
N220        O230   1.262       .  A
N220        O231   1.261       .  A
N222        O228   1.260       .  A
N222        O229   1.262       .  A
C232        H242   1.084       .  S
C232        C233   1.399       .  A
C232        C237   1.400       .  A
C233        C238   1.487       .  S
C233        C234   1.409       .  A
C234        C235   1.403       .  A
C234        N239   1.431       .  S
C235        H240   1.083       .  S
C235        C236   1.408       .  A
C236        C237   1.419       .  A
C237        N241   1.429       .  S
C238        C243   1.411       .  A
C238        C247   1.404       .  A
N239        O254   1.262       .  A
N239        O255   1.262       .  A
N241        O252   1.262       .  A
N241        O253   1.261       .  A
C243        C244   1.403       .  A
C243        N248   1.432       .  S
C244        H249   1.084       .  S
C244        C245   1.405       .  A
C245        C246   1.412       .  A
C246        C247   1.403       .  A
C246        N250   1.429       .  S
C247        H251   1.084       .  S
N248        O258   1.262       .  A
N248        O259   1.262       .  A
N250        O256   1.262       .  A
N250        O257   1.262       .  A
C260        H270   1.083       .  S
C260        C261   1.409       .  A
C260        C265   1.402       .  A
C261        C266   1.496       .  S
C261        C262   1.417       .  A
C262        C263   1.402       .  A
C262        N267   1.437       .  S
C263        H268   1.083       .  S
C263        C264   1.404       .  A
C264        C265   1.407       .  A
C265        N269   1.429       .  S
C266        C271   1.415       .  A
C266        C275   1.405       .  A
N267        O282   1.263       .  A
N267        O283   1.262       .  A
N269        O280   1.262       .  A
N269        O281   1.262       .  A
C271        C272   1.404       .  A
C271        N276   1.434       .  S
C272        H277   1.084       .  S
C272        C273   1.402       .  A
C273        C274   1.417       .  A
C274        C275   1.399       .  A
C274        N278   1.438       .  S
C275        H279   1.083       .  S
N276        O286   1.262       .  A
N276        O287   1.262       .  A
N278        O284   1.260       .  A
N278        O285   1.263       .  A
C288        H298   1.084       .  S
C288        C289   1.404       .  A
C288        C293   1.403       .  A
C289        C294   1.479       .  S
C289        C290   1.407       .  A
C290        C291   1.396       .  A
C290        N295   1.430       .  S
C291        H296   1.082       .  S
C291        C292   1.404       .  A
C292        C293   1.412       .  A
C293        N297   1.430       .  S
C294        C299   1.405       .  A
C294        C303   1.403       .  A
N295        O310   1.262       .  A
N295        O311   1.261       .  A
N297        O308   1.262       .  A
N297        O309   1.262       .  A
C299        C300   1.395       .  A
C299        N304   1.430       .  S
C300        H305   1.079       .  S
C300        C301   1.407       .  A
C301        C302   1.414       .  A
C302        C303   1.406       .  A
C302        N306   1.433       .  S
C303        H307   1.083       .  S
N304        O314   1.262       .  A
N304        O315   1.262       .  A
N306        O312   1.262       .  A
N306        O313   1.263       .  A
C316        H326   1.083       .  S
C316        C317   1.407       .  A
C316        C321   1.407       .  A
C317        C322   1.501       .  S
C317        C318   1.414       .  A
C318        C319   1.405       .  A
C318        N323   1.433       .  S
C319        H324   1.084       .  S
C319        C320   1.405       .  A
C320        C321   1.413       .  A
C321        N325   1.437       .  S
C322        C327   1.414       .  A
C322        C331   1.407       .  A
N323        O338   1.261       .  A
N323        O339   1.262       .  A
N325        O336   1.262       .  A
N325        O337   1.262       .  A
C327        C328   1.405       .  A
C327        N332   1.432       .  S
C328        H333   1.083       .  S
C328        C329   1.404       .  A
C329        C330   1.415       .  A
C330        C331   1.406       .  A
C330        N334   1.431       .  S
C331        H335   1.084       .  S
N332        O342   1.262       .  A
N332        O343   1.262       .  A
N334        O340   1.262       .  A
N334        O341   1.262       .  A
C344        H354   1.084       .  S
C344        C345   1.403       .  A
C344        C349   1.396       .  A
C345        C350   1.492       .  S
C345        C346   1.418       .  A
C346        C347   1.410       .  A
C346        N351   1.436       .  S
C347        H352   1.084       .  S
C347        C348   1.406       .  A
C348        C349   1.412       .  A
C349        N353   1.430       .  S
C350        C355   1.416       .  A
C350        C359   1.400       .  A
N351        O366   1.263       .  A
N351        O367   1.263       .  A
N353        O364   1.262       .  A
N353        O365   1.262       .  A
C355        C356   1.410       .  A
C355        N360   1.434       .  S
C356        H361   1.084       .  S
C356        C357   1.406       .  A
C357        C358   1.410       .  A
C358        C359   1.394       .  A
C358        N362   1.424       .  S
C359        H363   1.084       .  S
N360        O370   1.262       .  A
N360        O371   1.263       .  A
N362        O368   1.261       .  A
N362        O369   1.261       .  A
C372        H382   1.084       .  S
C372        C373   1.400       .  A
C372        C377   1.402       .  A
C373        C378   1.483       .  S
C373        C374   1.410       .  A
C374        C375   1.404       .  A
C374        N379   1.432       .  S
C375        H380   1.083       .  S
C375        C376   1.407       .  A
C376        C377   1.416       .  A
C377        N381   1.430       .  S
C378        C383   1.408       .  A
C378        C387   1.403       .  A
N379        O394   1.262       .  A
N379        O395   1.262       .  A
N381        O392   1.262       .  A
N381        O393   1.262       .  A
C383        C384   1.399       .  A
C383        N388   1.434       .  S
C384        H389   1.083       .  S
C384        C385   1.408       .  A
C385        C386   1.416       .  A
C386        C387   1.408       .  A
C386        N390   1.437       .  S
C387        H391   1.084       .  S
N388        O398   1.262       .  A
N388        O399   1.262       .  A
N390        O396   1.263       .  A
N390        O397   1.263       .  A
C400        H410   1.084       .  S
C400        C401   1.404       .  A
C400        C405   1.406       .  A
C401        C406   1.486       .  S
C401        C402   1.407       .  A
C402        C403   1.400       .  A
C402        N407   1.431       .  S
C403        H408   1.082       .  S
C403        C404   1.407       .  A
C404        C405   1.416       .  A
C405        N409   1.429       .  S
C406        C411   1.408       .  A
C406        C415   1.397       .  A
N407        O422   1.262       .  A
N407        O423   1.262       .  A
N409        O420   1.262       .  A
N409        O421   1.262       .  A
C411        C412   1.407       .  A
C411        N416   1.430       .  S
C412        H417   1.083       .  S
C412        C413   1.410       .  A
C413        C414   1.420       .  A
C414        C415   1.397       .  A
C414        N418   1.427       .  S
C415        H419   1.084       .  S
N416        O426   1.261       .  A
N416        O427   1.262       .  A
N418        O424   1.260       .  A
N418        O425   1.262       .  A
C428        H438   1.083       .  S
C428        C429   1.408       .  A
C428        C433   1.404       .  A
C429        C434   1.495       .  S
C429        C430   1.416       .  A
C430        C431   1.400       .  A
C430        N435   1.434       .  S
C431        H436   1.083       .  S
C431        C432   1.401       .  A
C432        C433   1.409       .  A
C433        N437   1.430       .  S
C434        C439   1.414       .  A
C434        C443   1.402       .  A
N435        O450   1.262       .  A
N435        O451   1.262       .  A
N437        O448   1.262       .  A
N437        O449   1.262       .  A
C439        C440   1.406       .  A
C439        N444   1.431       .  S
C440        H445   1.084       .  S
C440        C441   1.404       .  A
C441        C442   1.415       .  A
C442        C443   1.397       .  A
C442        N446   1.431       .  S
C443        H447   1.083       .  S
N444        O454   1.262       .  A
N444        O455   1.262       .  A
N446        O452   1.259       .  A
N446        O453   1.263       .  A
C456        H466   1.084       .  S
C456        C457   1.399       .  A
C456        C461   1.402       .  A
C457        C462   1.491       .  S
C457        C458   1.410       .  A
C458        C459   1.409       .  A
C458        N463   1.428       .  S
C459        H464   1.083       .  S
C459        C460   1.407       .  A
C460        C461   1.415       .  A
C461        N465   1.425       .  S
C462        C467   1.410       .  A
C462        C471   1.400       .  A
N463        O478   1.262       .  A
N463        O479   1.262       .  A
N465        O476   1.262       .  A
N465        O477   1.262       .  A
C467        C468   1.409       .  A
C467        N472   1.429       .  S
C468        H473   1.083       .  S
C468        C469   1.408       .  A
C469        C470   1.419       .  A
C470        C471   1.404       .  A
C470        N474   1.429       .  S
C471        H475   1.084       .  S
N472        O482   1.262       .  A
N472        O483   1.262       .  A
N474        O480   1.262       .  A
N474        O481   1.262       .  A
C484        H494   1.084       .  S
C484        C485   1.400       .  A
C484        C489   1.400       .  A
C485        C490   1.479       .  S
C485        C486   1.408       .  A
C486        C487   1.400       .  A
C486        N491   1.429       .  S
C487        H492   1.083       .  S
C487        C488   1.405       .  A
C488        C489   1.413       .  A
C489        N493   1.433       .  S
C490        C495   1.411       .  A
C490        C499   1.402       .  A
N491        O506   1.262       .  A
N491        O507   1.262       .  A
N493        O504   1.262       .  A
N493        O505   1.262       .  A
C495        C496   1.401       .  A
C495        N500   1.431       .  S
C496        H501   1.084       .  S
C496        C497   1.399       .  A
C497        C498   1.408       .  A
C498        C499   1.400       .  A
C498        N502   1.431       .  S
C499        H503   1.084       .  S
N500        O510   1.262       .  A
N500        O511   1.262       .  A
N502        O508   1.262       .  A
N502        O509   1.262       .  A
C512        H522   1.085       .  S
C512        C513   1.405       .  A
C512        C517   1.397       .  A
C513        C518   1.484       .  S
C513        C514   1.414       .  A
C514        C515   1.404       .  A
C514        N519   1.435       .  S
C515        H520   1.084       .  S
C515        C516   1.405       .  A
C516        C517   1.409       .  A
C517        N521   1.430       .  S
C518        C523   1.415       .  A
C518        C527   1.396       .  A
N519        O534   1.262       .  A
N519        O535   1.262       .  A
N521        O532   1.262       .  A
N521        O533   1.262       .  A
C523        C524   1.409       .  A
C523        N528   1.434       .  S
C524        H529   1.084       .  S
C524        C525   1.405       .  A
C525        C526   1.414       .  A
C526        C527   1.390       .  A
C526        N530   1.427       .  S
C527        H531   1.085       .  S
N528        O538   1.262       .  A
N528        O539   1.263       .  A
N530        O536   1.263       .  A
N530        O537   1.260       .  A
C540        H550   1.084       .  S
C540        C541   1.398       .  A
C540        C545   1.400       .  A
C541        C546   1.470       .  S
C541        C542   1.404       .  A
C542        C543   1.396       .  A
C542        N547   1.430       .  S
C543        H548   1.084       .  S
C543        C544   1.409       .  A
C544        C545   1.416       .  A
C545        N549   1.426       .  S
C546        C551   1.404       .  A
C546        C555   1.393       .  A
N547        O562   1.262       .  A
N547        O563   1.262       .  A
N549        O560   1.262       .  A
N549        O561   1.262       .  A
C551        C552   1.402       .  A
C551        N556   1.429       .  S
C552        H557   1.082       .  S
C552        C553   1.409       .  A
C553        C554   1.421       .  A
C554        C555   1.394       .  A
C554        N558   1.428       .  S
C555        H559   1.085       .  S
N556        O566   1.261       .  A
N556        O567   1.262       .  A
N558        O564   1.262       .  A
N558        O565   1.261       .  A
C568        H578   1.084       .  S
C568        C569   1.405       .  A
C568        C573   1.409       .  A
C569        C574   1.494       .  S
C569        C570   1.412       .  A
C570        C571   1.404       .  A
C570        N575   1.428       .  S
C571        H576   1.084       .  S
C571        C572   1.401       .  A
C572        C573   1.412       .  A
C573        N577   1.430       .  S
C574        C579   1.412       .  A
C574        C583   1.406       .  A
N575        O590   1.262       .  A
N575        O591   1.261       .  A
N577        O588   1.262       .  A
N577        O589   1.262       .  A
C579        C580   1.406       .  A
C579        N584   1.433       .  S
C580        H585   1.081       .  S
C580        C581   1.404       .  A
C581        C582   1.409       .  A
C582        C583   1.409       .  A
C582        N586   1.430       .  S
C583        H587   1.083       .  S
N584        O594   1.262       .  A
N584        O595   1.262       .  A
N586        O592   1.262       .  A
N586        O593   1.262       .  A
C596        H606   1.085       .  S
C596        C597   1.393       .  A
C596        C601   1.399       .  A
C597        C602   1.486       .  S
C597        C598   1.408       .  A
C598        C599   1.408       .  A
C598        N603   1.427       .  S
C599        H604   1.083       .  S
C599        C600   1.412       .  A
C600        C601   1.423       .  A
C601        N605   1.427       .  S
C602        C607   1.412       .  A
C602        C611   1.401       .  A
N603        O618   1.262       .  A
N603        O619   1.260       .  A
N605        O616   1.262       .  A
N605        O617   1.262       .  A
C607        C608   1.402       .  A
C607        N612   1.430       .  S
C608        H613   1.084       .  S
C608        C609   1.403       .  A
C609        C610   1.417       .  A
C610        C611   1.406       .  A
C610        N614   1.432       .  S
C611        H615   1.084       .  S
N612        O622   1.262       .  A
N612        O623   1.262       .  A
N614        O620   1.263       .  A
N614        O621   1.262       .  A
C624        H634   1.084       .  S
C624        C625   1.399       .  A
C624        C629   1.402       .  A
C625        C630   1.484       .  S
C625        C626   1.410       .  A
C626        C627   1.402       .  A
C626        N631   1.431       .  S
C627        H632   1.083       .  S
C627        C628   1.407       .  A
C628        C629   1.418       .  A
C629        N633   1.428       .  S
C630        C635   1.409       .  A
C630        C639   1.399       .  A
N631        O646   1.262       .  A
N631        O647   1.262       .  A
N633        O644   1.261       .  A
N633        O645   1.262       .  A
C635        C636   1.402       .  A
C635        N640   1.433       .  S
C636        H641   1.084       .  S
C636        C637   1.405       .  A
C637        C638   1.420       .  A
C638        C639   1.404       .  A
C638        N642   1.429       .  S
C639        H643   1.084       .  S
N640        O650   1.262       .  A
N640        O651   1.262       .  A
N642        O648   1.260       .  A
N642        O649   1.262       .  A
C652        H662   1.084       .  S
C652        C653   1.398       .  A
C652        C657   1.400       .  A
C653        C658   1.475       .  S
C653        C654   1.407       .  A
C654        C655   1.398       .  A
C654        N659   1.430       .  S
C655        H660   1.084       .  S
C655        C656   1.406       .  A
C656        C657   1.417       .  A
C657        N661   1.435       .  S
C658        C663   1.405       .  A
C658        C667   1.401       .  A
N659        O674   1.262       .  A
N659        O675   1.262       .  A
N661        O672   1.262       .  A
N661        O673   1.262       .  A
C663        C664   1.394       .  A
C663        N668   1.430       .  S
C664        H669   1.083       .  S
C664        C665   1.405       .  A
C665        C666   1.417       .  A
C666        C667   1.402       .  A
C666        N670   1.434       .  S
C667        H671   1.084       .  S
N668        O678   1.262       .  A
N668        O679   1.262       .  A
N670        O676   1.263       .  A
N670        O677   1.261       .  A
C680        H690   1.085       .  S
C680        C681   1.391       .  A
C680        C685   1.388       .  A
C681        C686   1.468       .  S
C681        C682   1.409       .  A
C682        C683   1.403       .  A
C682        N687   1.430       .  S
C683        H688   1.084       .  S
C683        C684   1.405       .  A
C684        C685   1.417       .  A
C685        N689   1.428       .  S
C686        C691   1.402       .  A
C686        C695   1.398       .  A
N687        O702   1.262       .  A
N687        O703   1.262       .  A
N689        O700   1.262       .  A
N689        O701   1.262       .  A
C691        C692   1.391       .  A
C691        N696   1.430       .  S
C692        H697   1.082       .  S
C692        C693   1.406       .  A
C693        C694   1.418       .  A
C694        C695   1.401       .  A
C694        N698   1.428       .  S
C695        H699   1.084       .  S
N696        O706   1.262       .  A
N696        O707   1.262       .  A
N698        O704   1.257       .  A
N698        O705   1.262       .  A
C708        H718   1.084       .  S
C708        C709   1.396       .  A
C708        C713   1.396       .  A
C709        C714   1.466       .  S
C709        C710   1.403       .  A
C710        C711   1.397       .  A
C710        N715   1.429       .  S
C711        H716   1.082       .  S
C711        C712   1.406       .  A
C712        C713   1.410       .  A
C713        N717   1.423       .  S
C714        C719   1.409       .  A
C714        C723   1.396       .  A
N715        O730   1.262       .  A
N715        O731   1.262       .  A
N717        O728   1.262       .  A
N717        O729   1.262       .  A
C719        C720   1.401       .  A
C719        N724   1.431       .  S
C720        H725   1.084       .  S
C720        C721   1.403       .  A
C721        C722   1.413       .  A
C722        C723   1.394       .  A
C722        N726   1.431       .  S
C723        H727   1.084       .  S
N724        O734   1.262       .  A
N724        O735   1.262       .  A
N726        O732   1.262       .  A
N726        O733   1.262       .  A
C736        H746   1.072       .  S
C736        C737   1.407       .  A
C736        C741   1.406       .  A
C737        C742   1.482       .  S
C737        C738   1.407       .  A
C738        C739   1.402       .  A
C738        N743   1.438       .  S
C739        H744   1.029       .  S
C739        C740   1.411       .  A
C740        C741   1.410       .  A
C741        N745   1.431       .  S
C742        C747   1.408       .  A
C742        C751   1.399       .  A
N743        O758   1.263       .  A
N743        O759   1.261       .  A
N745        O756   1.262       .  A
N745        O757   1.262       .  A
C747        C748   1.397       .  A
C747        N752   1.435       .  S
C748        H753   1.082       .  S
C748        C749   1.407       .  A
C749        C750   1.423       .  A
C750        C751   1.404       .  A
C750        N754   1.432       .  S
C751        H755   1.085       .  S
N752        O762   1.263       .  A
N752        O763   1.262       .  A
N754        O760   1.262       .  A
N754        O761   1.260       .  A
C764        H774   1.084       .  S
C764        C765   1.404       .  A
C764        C769   1.393       .  A
C765        C770   1.488       .  S
C765        C766   1.414       .  A
C766        C767   1.407       .  A
C766        N771   1.435       .  S
C767        H772   1.084       .  S
C767        C768   1.409       .  A
C768        C769   1.413       .  A
C769        N773   1.430       .  S
C770        C775   1.416       .  A
C770        C779   1.399       .  A
N771        O786   1.262       .  A
N771        O787   1.263       .  A
N773        O784   1.262       .  A
N773        O785   1.262       .  A
C775        C776   1.409       .  A
C775        N780   1.435       .  S
C776        H781   1.082       .  S
C776        C777   1.410       .  A
C777        C778   1.416       .  A
C778        C779   1.390       .  A
C778        N782   1.430       .  S
C779        H783   1.085       .  S
N780        O790   1.262       .  A
N780        O791   1.263       .  A
N782        O788   1.261       .  A
N782        O789   1.263       .  A
C792        H802   1.084       .  S
C792        C793   1.401       .  A
C792        C797   1.399       .  A
C793        C798   1.479       .  S
C793        C794   1.409       .  A
C794        C795   1.402       .  A
C794        N799   1.434       .  S
C795        H800   1.081       .  S
C795        C796   1.407       .  A
C796        C797   1.409       .  A
C797        N801   1.430       .  S
C798        C803   1.411       .  A
C798        C807   1.403       .  A
N799        O814   1.262       .  A
N799        O815   1.262       .  A
N801        O812   1.261       .  A
N801        O813   1.262       .  A
C803        C804   1.401       .  A
C803        N808   1.435       .  S
C804        H809   1.084       .  S
C804        C805   1.406       .  A
C805        C806   1.411       .  A
C806        C807   1.400       .  A
C806        N810   1.429       .  S
C807        H811   1.084       .  S
N808        O818   1.262       .  A
N808        O819   1.262       .  A
N810        O816   1.261       .  A
N810        O817   1.262       .  A
C820        H830   1.084       .  S
C820        C821   1.401       .  A
C820        C825   1.394       .  A
C821        C826   1.480       .  S
C821        C822   1.412       .  A
C822        C823   1.398       .  A
C822        N827   1.432       .  S
C823        H828   1.084       .  S
C823        C824   1.404       .  A
C824        C825   1.415       .  A
C825        N829   1.430       .  S
C826        C831   1.412       .  A
C826        C835   1.400       .  A
N827        O842   1.262       .  A
N827        O843   1.262       .  A
N829        O840   1.262       .  A
N829        O841   1.261       .  A
C831        C832   1.395       .  A
C831        N836   1.433       .  S
C832        H837   1.083       .  S
C832        C833   1.403       .  A
C833        C834   1.414       .  A
C834        C835   1.397       .  A
C834        N838   1.429       .  S
C835        H839   1.084       .  S
N836        O846   1.262       .  A
N836        O847   1.262       .  A
N838        O844   1.262       .  A
N838        O845   1.262       .  A
O848        C856   1.272       .  A
O848       Co868   1.977       .  S
O849        C857   1.252       .  A
O849       Co869   1.956       .  S
O850        C858   1.269       .  A
O850       Co870   2.029       .  S
O851        C859   1.295       .  A
O851       Co871   2.111       .  S
O852        C858   1.254       .  A
O852       Co869   1.951       .  S
O853        C859   1.261       .  A
O853       Co868   1.877       .  S
O854        C857   1.266       .  A
O855        C856   1.280       .  A
C856       C1615   1.489       .  S
C857       C1531   1.480       .  S
C858       C1587   1.481       .  S
C859       C1568   1.476       .  S
O860        C873   1.297       .  A
O860       Co868   2.106       .  S
O861        C874   1.276       .  A
O861       Co869   2.027       .  S
O862        C875   1.257       .  A
O863        C876   1.266       .  A
O864        C876   1.276       .  A
O864       Co869   2.021       .  S
O865        C875   1.256       .  A
O865       Co868   1.984       .  S
O866        C873   1.270       .  A
O866       Co871   1.887       .  S
O867        C874   1.266       .  A
O867       Co870   1.961       .  S
Co868       O872   1.985       .  S
Co871       O872   2.015       .  S
C873       C1503   1.476       .  S
C874       C1652   1.485       .  S
C875       C1671   1.471       .  S
C876       C1475   1.482       .  S
C877        C914   1.458       .  S
C877       C1363   1.472       .  S
C877        N895   1.348       .  A
N878        N895   1.325       .  A
N878        N900   1.321       .  A
N878       Co915   2.083   1_565  S
C879        C917   1.469       .  S
C879        N904   1.345       .  A
C879        H924   1.081       .  S
H880        C921   1.077       .  S
C881        C885   1.458       .  S
C881        N905   1.337       .  A
C881        H910   1.082       .  S
Co882       N900   2.082   1_545  S
Co882       N890   2.096   1_545  S
Co882       N922   2.097       .  S
Co882       N898   2.084       .  S
Co882      Cl926   2.455       .  S
N883        C921   1.337       .  A
N883        N890   1.318       .  A
N883       Co884   2.076   1_565  S
Co884       N904   2.101       .  S
Co884      Cl926   2.451       .  S
C885       C1419   1.494       .  S
C885        N923   1.360       .  A
N886        N893   1.318       .  A
N886        N916   1.323       .  A
N886       Co919   2.082       .  S
N887        N905   1.322       .  A
N887        N923   1.333       .  A
N888        C917   1.350       .  A
N888        N898   1.323       .  A
H889        C914   1.082       .  S
N890        N911   1.326       .  A
N891        N909   1.321       .  A
N891        N896   1.327       .  A
C892        C920   1.456       .  S
C892       C1344   1.477       .  S
C892        N896   1.353       .  A
N893        C908   1.341       .  A
C894        C897   1.465       .  S
C894        N922   1.343       .  A
C894        H928   1.082       .  S
C897       C1279   1.484       .  S
C897        N918   1.351       .  A
N898        N904   1.321       .  A
N899        C925   1.337       .  A
N899        N901   1.319       .  A
N900        C914   1.339       .  A
N901        N929   1.327       .  A
N901       Co919   2.095   1_545  S
H902        C925   1.082       .  S
H903        C920   1.081       .  S
N905       Co919   2.083       .  S
N906        N918   1.326       .  A
N906        N922   1.320       .  A
N906       Co915   2.086       .  S
C907        C921   1.466       .  S
C907       C1456   1.496       .  S
C907        N911   1.356       .  A
C908        C927   1.464       .  S
C908        H912   1.081       .  S
N909        C920   1.336       .  A
N909       Co919   2.071   1_545  S
C913        C925   1.457       .  S
C913       C1251   1.480       .  S
C913        N929   1.354       .  A
Co915      Cl926   2.450       .  S
N916        C927   1.351       .  A
C917       C1316   1.493       .  S
C927       C1391   1.484       .  S
C930        C967   1.465       .  S
C930       C1139   1.487       .  S
C930        N948   1.352       .  A
N931        N948   1.325       .  A
N931        N953   1.320       .  A
N931       Co968   2.088       .  S
C932        C970   1.471       .  S
C932        N957   1.345       .  A
C932        H977   1.081       .  S
H933        C974   1.081       .  S
C934        C938   1.463       .  S
C934        N958   1.342       .  A
C934        H963   1.082       .  S
Co935       N953   2.090       .  S
Co935       N943   2.082       .  S
Co935       N975   2.070   1_655  S
Co935       N951   2.096   1_655  S
Co935      Cl979   2.453       .  S
N936        C974   1.346       .  A
N936        N943   1.320       .  A
N936       Co937   2.101   1_655  S
Co937       N957   2.106       .  S
Co937      Cl979   2.459   1_455  S
C938       C1195   1.469       .  S
C938        N976   1.344       .  A
N939        N946   1.321       .  A
N939        N969   1.329       .  A
N939       Co972   2.103   1_655  S
N940        N958   1.323       .  A
N940        N976   1.323       .  A
N941        C970   1.353       .  A
N941        N951   1.328       .  A
H942        C967   1.081       .  S
N943        N964   1.324       .  A
N944        N962   1.321       .  A
N944        N949   1.325       .  A
C945        C973   1.463       .  S
C945       C1064   1.482       .  S
C945        N949   1.349       .  A
N946        C961   1.344       .  A
C947        C950   1.456       .  S
C947        N975   1.334       .  A
C947        H981   1.081       .  S
C950       C1111   1.479       .  S
C950        N971   1.354       .  A
N951        N957   1.320       .  A
N952        C978   1.341       .  A
N952        N954   1.322       .  A
N953        C967   1.340       .  A
N954        N982   1.327       .  A
N954       Co972   2.103       .  S
H955        C978   1.082       .  S
H956        C973   1.082       .  S
N958       Co972   2.101   1_655  S
N959        N971   1.328       .  A
N959        N975   1.319       .  A
N959       Co968   2.095   1_455  S
C960        C974   1.468       .  S
C960       C1223   1.492       .  S
C960        N964   1.350       .  A
C961        C980   1.462       .  S
C961        H965   1.082       .  S
N962        C973   1.340       .  A
N962       Co972   2.089       .  S
C966        C978   1.461       .  S
C966       C1092   1.489       .  S
C966        N982   1.354       .  A
Co968      Cl979   2.456       .  S
N969        C980   1.356       .  A
C970       C1036   1.499       .  S
C980       C1176   1.495       .  S
C983        H984   1.104       .  S
C983        C989   1.535       .  S
C983        C988   1.543       .  S
C983        C987   1.535       .  S
C985        H986   1.106       .  S
C985        C991   1.537       .  S
C985        C990   1.543       .  S
C985        C992   1.541       .  S
C987        C990   1.378       .  D
C987       C1680   1.487       .  S
C988        C991   1.381       .  D
C988       C1120   1.486       .  S
C989        C992   1.372       .  D
C989       C1307   1.506       .  S
C990       C1643   1.493       .  S
C991       C1083   1.507       .  S
C992       C1335   1.477       .  S
C993        H994   1.105       .  S
C993        C999   1.539       .  S
C993        C998   1.545       .  S
C993        C997   1.542       .  S
C995        H996   1.105       .  S
C995       C1001   1.541       .  S
C995       C1000   1.556       .  S
C995       C1002   1.537       .  S
C997       C1000   1.387       .  D
C997       C1624   1.497       .  S
C998       C1001   1.381       .  D
C998       C1288   1.505       .  S
C999       C1002   1.371       .  D
C999       C1148   1.487       .  S
C1000      C1596   1.502       .  S
C1001      C1260   1.508       .  S
C1002      C1167   1.499       .  S
C1003      H1004   1.104       .  S
C1003      C1009   1.548       .  S
C1003      C1008   1.545       .  S
C1003      C1007   1.539       .  S
C1005      H1006   1.099       .  S
C1005      C1011   1.536       .  S
C1005      C1010   1.543       .  S
C1005      C1012   1.541       .  S
C1007      C1010   1.376       .  D
C1007      C1512   1.490       .  S
C1008      C1011   1.375       .  D
C1008      C1447   1.507       .  S
C1009      C1012   1.388       .  D
C1009      C1027   1.504       .  S
C1010      C1484   1.484       .  S
C1011      C1428   1.498       .  S
C1012      C1055   1.514       .  S
C1013      H1014   1.111       .  S
C1013      C1019   1.540       .  S
C1013      C1018   1.545       .  S
C1013      C1017   1.537       .  S
C1015      H1016   1.106       .  S
C1015      C1021   1.531       .  S
C1015      C1020   1.542       .  S
C1015      C1022   1.535       .  S
C1017      C1020   1.382       .  D
C1017      C1559   1.481       .  S
C1018      C1021   1.380       .  D
C1018      C1232   1.501       .  S
C1019      C1022   1.377       .  D
C1019      C1372   1.494       .  S
C1020      C1540   1.493       .  S
C1021      C1204   1.492       .  S
C1022      C1400   1.499       .  S
C1023      H1033   1.083       .  S
C1023      C1024   1.409       .  A
C1023      C1028   1.406       .  A
C1024      C1029   1.503       .  S
C1024      C1025   1.416       .  A
C1025      C1026   1.409       .  A
C1025      N1030   1.436       .  S
C1026      H1031   1.070       .  S
C1026      C1027   1.406       .  A
C1027      C1028   1.408       .  A
C1028      N1032   1.428       .  S
C1029      C1034   1.418       .  A
C1029      C1038   1.401       .  A
N1030      O1045   1.263       .  A
N1030      O1046   1.262       .  A
N1032      O1043   1.262       .  A
N1032      O1044   1.262       .  A
C1034      C1035   1.412       .  A
C1034      N1039   1.435       .  S
C1035      H1040   1.083       .  S
C1035      C1036   1.408       .  A
C1036      C1037   1.414       .  A
C1037      C1038   1.405       .  A
C1037      N1041   1.429       .  S
C1038      H1042   1.084       .  S
N1039      O1049   1.262       .  A
N1039      O1050   1.262       .  A
N1041      O1047   1.261       .  A
N1041      O1048   1.263       .  A
C1051      H1061   1.085       .  S
C1051      C1052   1.392       .  A
C1051      C1056   1.396       .  A
C1052      C1057   1.482       .  S
C1052      C1053   1.409       .  A
C1053      C1054   1.408       .  A
C1053      N1058   1.434       .  S
C1054      H1059   1.083       .  S
C1054      C1055   1.412       .  A
C1055      C1056   1.427       .  A
C1056      N1060   1.428       .  S
C1057      C1062   1.411       .  A
C1057      C1066   1.402       .  A
N1058      O1073   1.262       .  A
N1058      O1074   1.262       .  A
N1060      O1071   1.263       .  A
N1060      O1072   1.261       .  A
C1062      C1063   1.398       .  A
C1062      N1067   1.431       .  S
C1063      H1068   1.083       .  S
C1063      C1064   1.401       .  A
C1064      C1065   1.415       .  A
C1065      C1066   1.404       .  A
C1065      N1069   1.429       .  S
C1066      H1070   1.084       .  S
N1067      O1077   1.262       .  A
N1067      O1078   1.261       .  A
N1069      O1075   1.262       .  A
N1069      O1076   1.262       .  A
C1079      H1089   1.084       .  S
C1079      C1080   1.398       .  A
C1079      C1084   1.402       .  A
C1080      C1085   1.491       .  S
C1080      C1081   1.410       .  A
C1081      C1082   1.405       .  A
C1081      N1086   1.430       .  S
C1082      H1087   1.083       .  S
C1082      C1083   1.407       .  A
C1083      C1084   1.422       .  A
C1084      N1088   1.428       .  S
C1085      C1090   1.412       .  A
C1085      C1094   1.404       .  A
N1086      O1101   1.261       .  A
N1086      O1102   1.262       .  A
N1088      O1099   1.262       .  A
N1088      O1100   1.261       .  A
C1090      C1091   1.405       .  A
C1090      N1095   1.431       .  S
C1091      H1096   1.084       .  S
C1091      C1092   1.406       .  A
C1092      C1093   1.413       .  A
C1093      C1094   1.403       .  A
C1093      N1097   1.429       .  S
C1094      H1098   1.084       .  S
N1095      O1105   1.262       .  A
N1095      O1106   1.262       .  A
N1097      O1103   1.262       .  A
N1097      O1104   1.262       .  A
C1107      H1117   1.083       .  S
C1107      C1108   1.410       .  A
C1107      C1112   1.404       .  A
C1108      C1113   1.494       .  S
C1108      C1109   1.414       .  A
C1109      C1110   1.397       .  A
C1109      N1114   1.433       .  S
C1110      H1115   1.083       .  S
C1110      C1111   1.403       .  A
C1111      C1112   1.408       .  A
C1112      N1116   1.430       .  S
C1113      C1118   1.413       .  A
C1113      C1122   1.405       .  A
N1114      O1129   1.263       .  A
N1114      O1130   1.261       .  A
N1116      O1127   1.262       .  A
N1116      O1128   1.262       .  A
C1118      C1119   1.403       .  A
C1118      N1123   1.433       .  S
C1119      H1124   1.084       .  S
C1119      C1120   1.402       .  A
C1120      C1121   1.417       .  A
C1121      C1122   1.401       .  A
C1121      N1125   1.438       .  S
C1122      H1126   1.083       .  S
N1123      O1133   1.262       .  A
N1123      O1134   1.262       .  A
N1125      O1131   1.260       .  A
N1125      O1132   1.263       .  A
C1135      H1145   1.084       .  S
C1135      C1136   1.402       .  A
C1135      C1140   1.404       .  A
C1136      C1141   1.481       .  S
C1136      C1137   1.409       .  A
C1137      C1138   1.402       .  A
C1137      N1142   1.434       .  S
C1138      H1143   1.082       .  S
C1138      C1139   1.406       .  A
C1139      C1140   1.414       .  A
C1140      N1144   1.429       .  S
C1141      C1146   1.407       .  A
C1141      C1150   1.404       .  A
N1142      O1157   1.262       .  A
N1142      O1158   1.262       .  A
N1144      O1155   1.262       .  A
N1144      O1156   1.262       .  A
C1146      C1147   1.395       .  A
C1146      N1151   1.431       .  S
C1147      H1152   1.079       .  S
C1147      C1148   1.401       .  A
C1148      C1149   1.412       .  A
C1149      C1150   1.409       .  A
C1149      N1153   1.434       .  S
C1150      H1154   1.083       .  S
N1151      O1161   1.262       .  A
N1151      O1162   1.262       .  A
N1153      O1159   1.261       .  A
N1153      O1160   1.262       .  A
C1163      H1173   1.083       .  S
C1163      C1164   1.408       .  A
C1163      C1168   1.410       .  A
C1164      C1169   1.496       .  S
C1164      C1165   1.409       .  A
C1165      C1166   1.404       .  A
C1165      N1170   1.430       .  S
C1166      H1171   1.081       .  S
C1166      C1167   1.405       .  A
C1167      C1168   1.409       .  A
C1168      N1172   1.429       .  S
C1169      C1174   1.409       .  A
C1169      C1178   1.405       .  A
N1170      O1185   1.262       .  A
N1170      O1186   1.262       .  A
N1172      O1183   1.262       .  A
N1172      O1184   1.262       .  A
C1174      C1175   1.407       .  A
C1174      N1179   1.429       .  S
C1175      H1180   1.084       .  S
C1175      C1176   1.407       .  A
C1176      C1177   1.416       .  A
C1177      C1178   1.410       .  A
C1177      N1181   1.431       .  S
C1178      H1182   1.084       .  S
N1179      O1189   1.262       .  A
N1179      O1190   1.262       .  A
N1181      O1187   1.262       .  A
N1181      O1188   1.262       .  A
C1191      H1201   1.084       .  S
C1191      C1192   1.402       .  A
C1191      C1196   1.397       .  A
C1192      C1197   1.479       .  S
C1192      C1193   1.414       .  A
C1193      C1194   1.404       .  A
C1193      N1198   1.431       .  S
C1194      H1199   1.084       .  S
C1194      C1195   1.401       .  A
C1195      C1196   1.406       .  A
C1196      N1200   1.429       .  S
C1197      C1202   1.408       .  A
C1197      C1206   1.396       .  A
N1198      O1213   1.261       .  A
N1198      O1214   1.262       .  A
N1200      O1211   1.262       .  A
N1200      O1212   1.262       .  A
C1202      C1203   1.404       .  A
C1202      N1207   1.429       .  S
C1203      H1208   1.084       .  S
C1203      C1204   1.407       .  A
C1204      C1205   1.413       .  A
C1205      C1206   1.396       .  A
C1205      N1209   1.424       .  S
C1206      H1210   1.085       .  S
N1207      O1217   1.262       .  A
N1207      O1218   1.262       .  A
N1209      O1215   1.262       .  A
N1209      O1216   1.260       .  A
C1219      H1229   1.084       .  S
C1219      C1220   1.401       .  A
C1219      C1224   1.403       .  A
C1220      C1225   1.491       .  S
C1220      C1221   1.414       .  A
C1221      C1222   1.408       .  A
C1221      N1226   1.433       .  S
C1222      H1227   1.083       .  S
C1222      C1223   1.405       .  A
C1223      C1224   1.416       .  A
C1224      N1228   1.429       .  S
C1225      C1230   1.411       .  A
C1225      C1234   1.405       .  A
N1226      O1241   1.262       .  A
N1226      O1242   1.262       .  A
N1228      O1239   1.262       .  A
N1228      O1240   1.262       .  A
C1230      C1231   1.403       .  A
C1230      N1235   1.435       .  S
C1231      H1236   1.083       .  S
C1231      C1232   1.408       .  A
C1232      C1233   1.417       .  A
C1233      C1234   1.410       .  A
C1233      N1237   1.437       .  S
C1234      H1238   1.084       .  S
N1235      O1245   1.262       .  A
N1235      O1246   1.262       .  A
N1237      O1243   1.263       .  A
N1237      O1244   1.263       .  A
C1247      H1257   1.084       .  S
C1247      C1248   1.405       .  A
C1247      C1252   1.401       .  A
C1248      C1253   1.483       .  S
C1248      C1249   1.408       .  A
C1249      C1250   1.402       .  A
C1249      N1254   1.431       .  S
C1250      H1255   1.083       .  S
C1250      C1251   1.407       .  A
C1251      C1252   1.408       .  A
C1252      N1256   1.429       .  S
C1253      C1258   1.410       .  A
C1253      C1262   1.396       .  A
N1254      O1269   1.262       .  A
N1254      O1270   1.262       .  A
N1256      O1267   1.262       .  A
N1256      O1268   1.262       .  A
C1258      C1259   1.408       .  A
C1258      N1263   1.433       .  S
C1259      H1264   1.083       .  S
C1259      C1260   1.411       .  A
C1260      C1261   1.420       .  A
C1261      C1262   1.398       .  A
C1261      N1265   1.426       .  S
C1262      H1266   1.085       .  S
N1263      O1273   1.262       .  A
N1263      O1274   1.262       .  A
N1265      O1271   1.261       .  A
N1265      O1272   1.262       .  A
C1275      H1285   1.083       .  S
C1275      C1276   1.407       .  A
C1275      C1280   1.406       .  A
C1276      C1281   1.496       .  S
C1276      C1277   1.414       .  A
C1277      C1278   1.403       .  A
C1277      N1282   1.431       .  S
C1278      H1283   1.084       .  S
C1278      C1279   1.403       .  A
C1279      C1280   1.411       .  A
C1280      N1284   1.432       .  S
C1281      C1286   1.413       .  A
C1281      C1290   1.400       .  A
N1282      O1297   1.262       .  A
N1282      O1298   1.262       .  A
N1284      O1295   1.262       .  A
N1284      O1296   1.262       .  A
C1286      C1287   1.409       .  A
C1286      N1291   1.431       .  S
C1287      H1292   1.081       .  S
C1287      C1288   1.405       .  A
C1288      C1289   1.417       .  A
C1289      C1290   1.399       .  A
C1289      N1293   1.425       .  S
C1290      H1294   1.084       .  S
N1291      O1301   1.262       .  A
N1291      O1302   1.262       .  A
N1293      O1299   1.257       .  A
N1293      O1300   1.262       .  A
C1303      H1313   1.085       .  S
C1303      C1304   1.395       .  A
C1303      C1308   1.398       .  A
C1304      C1309   1.485       .  S
C1304      C1305   1.408       .  A
C1305      C1306   1.408       .  A
C1305      N1310   1.428       .  S
C1306      H1311   1.083       .  S
C1306      C1307   1.410       .  A
C1307      C1308   1.418       .  A
C1308      N1312   1.424       .  S
C1309      C1314   1.409       .  A
C1309      C1318   1.401       .  A
N1310      O1325   1.262       .  A
N1310      O1326   1.262       .  A
N1312      O1323   1.262       .  A
N1312      O1324   1.262       .  A
C1314      C1315   1.405       .  A
C1314      N1319   1.429       .  S
C1315      H1320   1.083       .  S
C1315      C1316   1.407       .  A
C1316      C1317   1.418       .  A
C1317      C1318   1.403       .  A
C1317      N1321   1.429       .  S
C1318      H1322   1.084       .  S
N1319      O1329   1.262       .  A
N1319      O1330   1.262       .  A
N1321      O1327   1.262       .  A
N1321      O1328   1.262       .  A
C1331      H1341   1.083       .  S
C1331      C1332   1.407       .  A
C1331      C1336   1.400       .  A
C1332      C1337   1.490       .  S
C1332      C1333   1.418       .  A
C1333      C1334   1.400       .  A
C1333      N1338   1.436       .  S
C1334      H1339   1.084       .  S
C1334      C1335   1.398       .  A
C1335      C1336   1.404       .  A
C1336      N1340   1.431       .  S
C1337      C1342   1.416       .  A
C1337      C1346   1.404       .  A
N1338      O1353   1.262       .  A
N1338      O1354   1.263       .  A
N1340      O1351   1.262       .  A
N1340      O1352   1.262       .  A
C1342      C1343   1.403       .  A
C1342      N1347   1.433       .  S
C1343      H1348   1.084       .  S
C1343      C1344   1.401       .  A
C1344      C1345   1.413       .  A
C1345      C1346   1.398       .  A
C1345      N1349   1.433       .  S
C1346      H1350   1.084       .  S
N1347      O1357   1.262       .  A
N1347      O1358   1.262       .  A
N1349      O1355   1.262       .  A
N1349      O1356   1.263       .  A
C1359      H1369   1.083       .  S
C1359      C1360   1.406       .  A
C1359      C1364   1.403       .  A
C1360      C1365   1.493       .  S
C1360      C1361   1.419       .  A
C1361      C1362   1.398       .  A
C1361      N1366   1.434       .  S
C1362      H1367   1.084       .  S
C1362      C1363   1.397       .  A
C1363      C1364   1.410       .  A
C1364      N1368   1.429       .  S
C1365      C1370   1.414       .  A
C1365      C1374   1.400       .  A
N1366      O1381   1.263       .  A
N1366      O1382   1.261       .  A
N1368      O1379   1.262       .  A
N1368      O1380   1.262       .  A
C1370      C1371   1.406       .  A
C1370      N1375   1.431       .  S
C1371      H1376   1.084       .  S
C1371      C1372   1.406       .  A
C1372      C1373   1.416       .  A
C1373      C1374   1.395       .  A
C1373      N1377   1.427       .  S
C1374      H1378   1.084       .  S
N1375      O1385   1.262       .  A
N1375      O1386   1.262       .  A
N1377      O1383   1.261       .  A
N1377      O1384   1.259       .  A
C1387      H1397   1.084       .  S
C1387      C1388   1.404       .  A
C1387      C1392   1.403       .  A
C1388      C1393   1.484       .  S
C1388      C1389   1.410       .  A
C1389      C1390   1.399       .  A
C1389      N1394   1.429       .  S
C1390      H1395   1.084       .  S
C1390      C1391   1.405       .  A
C1391      C1392   1.414       .  A
C1392      N1396   1.431       .  S
C1393      C1398   1.412       .  A
C1393      C1402   1.396       .  A
N1394      O1409   1.261       .  A
N1394      O1410   1.262       .  A
N1396      O1407   1.262       .  A
N1396      O1408   1.262       .  A
C1398      C1399   1.408       .  A
C1398      N1403   1.433       .  S
C1399      H1404   1.083       .  S
C1399      C1400   1.408       .  A
C1400      C1401   1.420       .  A
C1401      C1402   1.395       .  A
C1401      N1405   1.428       .  S
C1402      H1406   1.085       .  S
N1403      O1413   1.262       .  A
N1403      O1414   1.262       .  A
N1405      O1411   1.262       .  A
N1405      O1412   1.261       .  A
C1415      H1425   1.084       .  S
C1415      C1416   1.410       .  A
C1415      C1420   1.411       .  A
C1416      C1421   1.507       .  S
C1416      C1417   1.416       .  A
C1417      C1418   1.404       .  A
C1417      N1422   1.431       .  S
C1418      H1423   1.083       .  S
C1418      C1419   1.404       .  A
C1419      C1420   1.410       .  A
C1420      N1424   1.429       .  S
C1421      C1426   1.422       .  A
C1421      C1430   1.408       .  A
N1422      O1437   1.261       .  A
N1422      O1438   1.263       .  A
N1424      O1435   1.262       .  A
N1424      O1436   1.262       .  A
C1426      C1427   1.410       .  A
C1426      N1431   1.437       .  S
C1427      H1432   1.082       .  S
C1427      C1428   1.403       .  A
C1428      C1429   1.409       .  A
C1429      C1430   1.409       .  A
C1429      N1433   1.433       .  S
C1430      H1434   1.083       .  S
N1431      O1441   1.262       .  A
N1431      O1442   1.263       .  A
N1433      O1439   1.263       .  A
N1433      O1440   1.262       .  A
C1443      H1453   1.085       .  S
C1443      C1444   1.392       .  A
C1443      C1448   1.399       .  A
C1444      C1449   1.479       .  S
C1444      C1445   1.405       .  A
C1445      C1446   1.406       .  A
C1445      N1450   1.429       .  S
C1446      H1451   1.083       .  S
C1446      C1447   1.411       .  A
C1447      C1448   1.423       .  A
C1448      N1452   1.426       .  S
C1449      C1454   1.406       .  A
C1449      C1458   1.395       .  A
N1450      O1465   1.262       .  A
N1450      O1466   1.260       .  A
N1452      O1463   1.261       .  A
N1452      O1464   1.262       .  A
C1454      C1455   1.404       .  A
C1454      N1459   1.428       .  S
C1455      H1460   1.083       .  S
C1455      C1456   1.409       .  A
C1456      C1457   1.420       .  A
C1457      C1458   1.400       .  A
C1457      N1461   1.425       .  S
C1458      H1462   1.084       .  S
N1459      O1469   1.262       .  A
N1459      O1470   1.261       .  A
N1461      O1467   1.262       .  A
N1461      O1468   1.262       .  A
C1471      H1481   1.084       .  S
C1471      C1472   1.396       .  A
C1471      C1476   1.397       .  A
C1472      C1477   1.467       .  S
C1472      C1473   1.404       .  A
C1473      C1474   1.396       .  A
C1473      N1478   1.430       .  S
C1474      H1479   1.084       .  S
C1474      C1475   1.408       .  A
C1475      C1476   1.417       .  A
C1476      N1480   1.428       .  S
C1477      C1482   1.405       .  A
C1477      C1486   1.395       .  A
N1478      O1493   1.262       .  A
N1478      O1494   1.262       .  A
N1480      O1491   1.261       .  A
N1480      O1492   1.262       .  A
C1482      C1483   1.396       .  A
C1482      N1487   1.429       .  S
C1483      H1488   1.084       .  S
C1483      C1484   1.404       .  A
C1484      C1485   1.418       .  A
C1485      C1486   1.397       .  A
C1485      N1489   1.429       .  S
C1486      H1490   1.084       .  S
N1487      O1497   1.262       .  A
N1487      O1498   1.262       .  A
N1489      O1495   1.260       .  A
N1489      O1496   1.262       .  A
C1499      H1509   1.084       .  S
C1499      C1500   1.402       .  A
C1499      C1504   1.405       .  A
C1500      C1505   1.481       .  S
C1500      C1501   1.409       .  A
C1501      C1502   1.396       .  A
C1501      N1506   1.430       .  S
C1502      H1507   1.084       .  S
C1502      C1503   1.402       .  A
C1503      C1504   1.416       .  A
C1504      N1508   1.437       .  S
C1505      C1510   1.406       .  A
C1505      C1514   1.402       .  A
N1506      O1521   1.262       .  A
N1506      O1522   1.262       .  A
N1508      O1519   1.263       .  A
N1508      O1520   1.262       .  A
C1510      C1511   1.398       .  A
C1510      N1515   1.430       .  S
C1511      H1516   1.084       .  S
C1511      C1512   1.406       .  A
C1512      C1513   1.419       .  A
C1513      C1514   1.402       .  A
C1513      N1517   1.435       .  S
C1514      H1518   1.084       .  S
N1515      O1525   1.262       .  A
N1515      O1526   1.262       .  A
N1517      O1523   1.263       .  A
N1517      O1524   1.262       .  A
C1527      H1537   1.083       .  S
C1527      C1528   1.395       .  A
C1527      C1532   1.393       .  A
C1528      C1533   1.477       .  S
C1528      C1529   1.410       .  A
C1529      C1530   1.402       .  A
C1529      N1534   1.432       .  S
C1530      H1535   1.084       .  S
C1530      C1531   1.405       .  A
C1531      C1532   1.420       .  A
C1532      N1536   1.434       .  S
C1533      C1538   1.404       .  A
C1533      C1542   1.401       .  A
N1534      O1549   1.262       .  A
N1534      O1550   1.262       .  A
N1536      O1547   1.262       .  A
N1536      O1548   1.262       .  A
C1538      C1539   1.391       .  A
C1538      N1543   1.429       .  S
C1539      H1544   1.082       .  S
C1539      C1540   1.407       .  A
C1540      C1541   1.417       .  A
C1541      C1542   1.403       .  A
C1541      N1545   1.428       .  S
C1542      H1546   1.084       .  S
N1543      O1553   1.262       .  A
N1543      O1554   1.262       .  A
N1545      O1551   1.258       .  A
N1545      O1552   1.262       .  A
C1555      H1565   1.084       .  S
C1555      C1556   1.399       .  A
C1555      C1560   1.396       .  A
C1556      C1561   1.472       .  S
C1556      C1557   1.404       .  A
C1557      C1558   1.398       .  A
C1557      N1562   1.429       .  S
C1558      H1563   1.083       .  S
C1558      C1559   1.407       .  A
C1559      C1560   1.408       .  A
C1560      N1564   1.423       .  S
C1561      C1566   1.411       .  A
C1561      C1570   1.397       .  A
N1562      O1577   1.262       .  A
N1562      O1578   1.262       .  A
N1564      O1575   1.262       .  A
N1564      O1576   1.262       .  A
C1566      C1567   1.403       .  A
C1566      N1571   1.432       .  S
C1567      H1572   1.084       .  S
C1567      C1568   1.405       .  A
C1568      C1569   1.414       .  A
C1569      C1570   1.393       .  A
C1569      N1573   1.431       .  S
C1570      H1574   1.084       .  S
N1571      O1581   1.262       .  A
N1571      O1582   1.262       .  A
N1573      O1579   1.262       .  A
N1573      O1580   1.262       .  A
C1583      H1593   1.083       .  S
C1583      C1584   1.404       .  A
C1583      C1588   1.404       .  A
C1584      C1589   1.474       .  S
C1584      C1585   1.403       .  A
C1585      C1586   1.394       .  A
C1585      N1590   1.432       .  S
C1586      H1591   1.080       .  S
C1586      C1587   1.408       .  A
C1587      C1588   1.411       .  A
C1588      N1592   1.428       .  S
C1589      C1594   1.402       .  A
C1589      C1598   1.394       .  A
N1590      O1605   1.262       .  A
N1590      O1606   1.262       .  A
N1592      O1603   1.262       .  A
N1592      O1604   1.262       .  A
C1594      C1595   1.396       .  A
C1594      N1599   1.432       .  S
C1595      H1600   1.079       .  S
C1595      C1596   1.409       .  A
C1596      C1597   1.426       .  A
C1597      C1598   1.403       .  A
C1597      N1601   1.430       .  S
C1598      H1602   1.084       .  S
N1599      O1609   1.262       .  A
N1599      O1610   1.262       .  A
N1601      O1607   1.263       .  A
N1601      O1608   1.260       .  A
C1611      H1621   1.085       .  S
C1611      C1612   1.400       .  A
C1611      C1616   1.395       .  A
C1612      C1617   1.489       .  S
C1612      C1613   1.414       .  A
C1613      C1614   1.411       .  A
C1613      N1618   1.434       .  S
C1614      H1619   1.083       .  S
C1614      C1615   1.409       .  A
C1615      C1616   1.417       .  A
C1616      N1620   1.432       .  S
C1617      C1622   1.414       .  A
C1617      C1626   1.400       .  A
N1618      O1633   1.262       .  A
N1618      O1634   1.262       .  A
N1620      O1631   1.262       .  A
N1620      O1632   1.262       .  A
C1622      C1623   1.409       .  A
C1622      N1627   1.434       .  S
C1623      H1628   1.083       .  S
C1623      C1624   1.410       .  A
C1624      C1625   1.417       .  A
C1625      C1626   1.395       .  A
C1625      N1629   1.430       .  S
C1626      H1630   1.085       .  S
N1627      O1637   1.262       .  A
N1627      O1638   1.262       .  A
N1629      O1635   1.261       .  A
N1629      O1636   1.262       .  A
C1639      H1649   1.084       .  S
C1639      C1640   1.399       .  A
C1639      C1644   1.399       .  A
C1640      C1645   1.471       .  S
C1640      C1641   1.402       .  A
C1641      C1642   1.397       .  A
C1641      N1646   1.428       .  S
C1642      H1647   1.081       .  S
C1642      C1643   1.409       .  A
C1643      C1644   1.411       .  A
C1644      N1648   1.427       .  S
C1645      C1650   1.403       .  A
C1645      C1654   1.399       .  A
N1646      O1661   1.262       .  A
N1646      O1662   1.261       .  A
N1648      O1659   1.262       .  A
N1648      O1660   1.261       .  A
C1650      C1651   1.396       .  A
C1650      N1655   1.429       .  S
C1651      H1656   1.084       .  S
C1651      C1652   1.408       .  A
C1652      C1653   1.418       .  A
C1653      C1654   1.402       .  A
C1653      N1657   1.429       .  S
C1654      H1658   1.084       .  S
N1655      O1665   1.262       .  A
N1655      O1666   1.261       .  A
N1657      O1663   1.261       .  A
N1657      O1664   1.261       .  A
C1667      H1677   1.084       .  S
C1667      C1668   1.401       .  A
C1667      C1672   1.396       .  A
C1668      C1673   1.469       .  S
C1668      C1669   1.406       .  A
C1669      C1670   1.394       .  A
C1669      N1674   1.432       .  S
C1670      H1675   1.084       .  S
C1670      C1671   1.404       .  A
C1671      C1672   1.414       .  A
C1672      N1676   1.431       .  S
C1673      C1678   1.405       .  A
C1673      C1682   1.398       .  A
N1674      O1689   1.262       .  A
N1674      O1690   1.262       .  A
N1676      O1687   1.262       .  A
N1676      O1688   1.262       .  A
C1678      C1679   1.395       .  A
C1678      N1683   1.432       .  S
C1679      H1684   1.083       .  S
C1679      C1680   1.407       .  A
C1680      C1681   1.415       .  A
C1681      C1682   1.394       .  A
C1681      N1685   1.429       .  S
C1682      H1686   1.084       .  S
N1683      O1693   1.262       .  A
N1683      O1694   1.262       .  A
N1685      O1691   1.261       .  A
N1685      O1692   1.262       .  A
