geometry optimzed in LAMMPS
_audit_creation_date              2020-11-30 
_audit_creation_method            'lammps2cif' 
_symmetry_space_group_name_H-M    'P1' 
_symmetry_Int_Tables_number       1 
_symmetry_cell_setting            triclinic 
loop_ 
_symmetry_equiv_pos_as_xyz 
  x,y,z 
_cell_length_a                    41.68847893 
_cell_length_b                    40.520997341559855 
_cell_length_c                    31.227665879318145 
_cell_angle_alpha                 89.9749404791909 
_cell_angle_beta                  90.35208753901424 
_cell_angle_gamma                 90.19350394149359 
loop_ 
_atom_site_label 
_atom_site_type_symbol 
_atom_site_fract_x 
_atom_site_fract_y 
_atom_site_fract_z 
_atom_site_charge 
O1          O  0.21139842  0.20209621  0.05885266    -0.77200
O2          O  0.26368379  0.23895581  0.21741019    -0.77200
O3          O  0.18025861  0.22230789  0.28915612    -0.77200
O4          O  0.31423202  0.22981382  0.04179865    -0.77100
O5          O  0.22732089  0.20441664  0.27317512    -0.77300
O6          O  0.27476816  0.19634318  0.05027642    -0.77200
O7          O  0.28524414  0.21070736  0.27222280    -0.77200
O8          O  0.17655837  0.24214579  0.04664541    -0.77200
C9          C  0.18310685  0.21315251  0.05968370     1.12500
C10         C  0.28297288  0.21710635  0.23148438     1.12400
C11         C  0.19767274  0.20080209  0.27277072     1.12500
C12         C  0.30396121  0.20228456  0.05394923     1.12400
O13         O  0.28247683  0.26481472  0.08857506    -0.77200
O14         O  0.20707532  0.27198323  0.24880485    -0.77200
O15         O  0.21499150  0.30214621  0.05095342    -0.77200
O16         O  0.31013657  0.27245802  0.29441129    -0.77200
O17         O  0.26666005  0.29388491  0.26806897    -0.77200
O18         O  0.21899689  0.26404022  0.10061835    -0.77200
O19         O  0.28836899  0.29394105  0.02916237    -0.77100
O20         O  0.18430128  0.28905969  0.30937868    -0.77200
Co21       Co  0.24714121  0.23173487  0.07129035     1.51500
Co22       Co  0.24690217  0.24963841  0.27157684     1.51700
Co23       Co  0.19265098  0.24782811  0.34027851     1.51600
Co24       Co  0.28914657  0.25315836  0.99656279     1.51500
O25         O  0.24301107  0.24881502  0.01133683    -1.39100
C26         C  0.29144111  0.29126286  0.06908119     1.12500
C27         C  0.18856991  0.29156628  0.26933128     1.12500
C28         C  0.21290681  0.29327042  0.08933303     1.12500
C29         C  0.29626780  0.29585659  0.27621038     1.12500
O30         O  0.27016851  0.47427108  0.10963465    -0.77200
O31         O  0.29120026  0.02181385  0.27525665    -0.77200
O32         O  0.27827682  0.45020423  0.28659318    -0.77200
O33         O  0.26115056  0.08034521  0.04810779    -0.77100
O34         O  0.27166848  0.47693614  0.22517103    -0.77300
O35         O  0.29051025  0.03703166  0.05970449    -0.77200
O36         O  0.26880921  0.06970239  0.28396064    -0.77200
O37         O  0.28575131  0.45284693  0.04712321    -0.77200
C38         C  0.28812761  0.45479958  0.08832457     1.12500
C39         C  0.29167270  0.05264046  0.26943613     1.12400
C40         C  0.28629622  0.45527489  0.24710607     1.12500
C41         C  0.28542775  0.06677855  0.06534103     1.12400
O42         O  0.22429922  0.04031663  0.09547693    -0.77200
O43         O  0.21294139  0.47200293  0.26387180    -0.77200
O44         O  0.21663177  0.43871759  0.04324611    -0.77200
O45         O  0.20071095  0.05720511  0.28989590    -0.77200
O46         O  0.22834430  0.03797027  0.23585018    -0.77200
O47         O  0.20927397  0.48412140  0.07685071    -0.77200
O48         O  0.19611538  0.05613566  0.03931864    -0.77100
O49         O  0.21767844  0.42299029  0.29443968    -0.77200
Co50       Co  0.25597241  0.00656404  0.07049388     1.51500
Co51       Co  0.24846882  0.99979076  0.26778136     1.51700
Co52       Co  0.25005895  0.45420907  0.00107260     1.51600
Co53       Co  0.23212532  0.06166410  0.00087759     1.51500
O54         O  0.24264091  0.01238912  0.00836579    -1.39100
C55         C  0.19898154  0.05294989  0.07892887     1.12500
C56         C  0.20428141  0.44143263  0.26679332     1.12500
C57         C  0.20127191  0.45503478  0.07044255     1.12500
C58         C  0.20393453  0.05288132  0.25048523     1.12500
O59         O  0.45888118  0.28720489  0.04538661    -0.77200
O60         O  0.03886353  0.30506667  0.29175420    -0.77200
O61         O  0.01423334  0.30283412  0.04853667    -0.77200
O62         O  0.48215853  0.28887020  0.26725550    -0.77100
O63         O  0.05996515  0.27571886  0.04215191    -0.77300
O64         O  0.43705754  0.27741931  0.29684128    -0.77200
O65         O  0.02420045  0.26931675  0.24379842    -0.77200
O66         O  0.47711517  0.26997874  0.10920124    -0.77200
C67         C  0.45860304  0.28857455  0.08724033     1.12500
C68         C  0.03703496  0.29678161  0.25313002     1.12400
C69         C  0.04415782  0.30105014  0.05416285     1.12500
C70         C  0.45259052  0.29479297  0.27108815     1.12400
O71         O  0.45156653  0.21192061  0.28918055    -0.77200
O72         O  0.03808222  0.20595278  0.04374792    -0.77200
O73         O  0.48175216  0.20851490  0.07393206    -0.77200
O74         O  0.01734455  0.20712874  0.28723969    -0.77200
O75         O  0.06232248  0.23599638  0.29275548    -0.77200
O76         O  0.43859384  0.21922223  0.03772159    -0.77200
O77         O  0.47809397  0.22688333  0.23017391    -0.77100
O78         O  0.02398070  0.24108522  0.09225116    -0.77200
Co79       Co  0.46273194  0.24986318  0.99809669     1.51500
Co80       Co  0.05111298  0.27226625  0.33584955     1.51700
Co81       Co  0.50013635  0.25240326  0.06195069     1.51600
Co82       Co  0.50002629  0.24344583  0.27947497     1.51500
O83         O  0.51190490  0.23927136  0.00555994    -1.39100
C84         C  0.45747819  0.20858004  0.24877621     1.12500
C85         C  0.03669507  0.21381610  0.08243906     1.12500
C86         C  0.45296980  0.20218541  0.06587683     1.12500
C87         C  0.04709760  0.21008904  0.28059362     1.12500
C88         C  0.12644818  0.13471600  0.21095822     0.48400
H89         H  0.12935853  0.13383857  0.24630904    -0.00600
C90         C  0.11850882  0.13629983  0.12843807     0.48500
H91         H  0.11496539  0.13678858  0.09313968    -0.00600
C92         C  0.14964723  0.15813406  0.18782429    -0.14300
C93         C  0.13256731  0.10140988  0.18922938    -0.14000
C94         C  0.09330328  0.14728967  0.19761849    -0.14400
C95         C  0.14545647  0.15889806  0.14435707    -0.14400
C96         C  0.12913744  0.10206676  0.14553423    -0.14000
C97         C  0.08896967  0.14855885  0.15396575    -0.14300
C98         C  0.36878083  0.13373086  0.12474826     0.48400
H99         H  0.36907188  0.13195545  0.08922214    -0.00600
C100        C  0.36974311  0.13601439  0.20752988     0.48500
H101        H  0.37023700  0.13701025  0.24312176    -0.00600
C102        C  0.35035630  0.16304703  0.14279439    -0.14300
C103        C  0.35271282  0.10403487  0.14594673    -0.14000
C104        C  0.40235199  0.13875246  0.14269475    -0.14400
C105        C  0.34987921  0.16379681  0.18679785    -0.14400
C106        C  0.35386410  0.10431391  0.19001993    -0.14000
C107        C  0.40312719  0.14017753  0.18671290    -0.14300
C108        C  0.12642413  0.37170559  0.11963082     0.48400
H109        H  0.12788147  0.37402555  0.08416859    -0.00600
C110        C  0.12330347  0.36588085  0.20216650     0.48500
H111        H  0.12116130  0.36380691  0.23746966    -0.00600
C112        C  0.14826869  0.34491915  0.13792597    -0.14300
C113        C  0.13733404  0.40280545  0.14327046    -0.14000
C114        C  0.09308110  0.36188979  0.13528599    -0.14400
C115        C  0.14646296  0.34118581  0.18156794    -0.14400
C116        C  0.13637060  0.39974614  0.18722471    -0.14000
C117        C  0.09116888  0.35859513  0.17899744    -0.14300
C118        C  0.36493296  0.36756760  0.21340894     0.48400
H119        H  0.36537569  0.36993549  0.24882872    -0.00600
C120        C  0.36446720  0.36256010  0.13033631     0.48500
H121        H  0.36454735  0.36050592  0.09488467    -0.00600
C122        C  0.33861312  0.34469577  0.19568360    -0.14300
C123        C  0.35698521  0.40014346  0.19114350    -0.14000
C124        C  0.39652714  0.35394269  0.19493223    -0.14400
C125        C  0.33916913  0.34073072  0.15237039    -0.14400
C126        C  0.35650665  0.39778009  0.14714983    -0.14000
C127        C  0.39643880  0.35130392  0.15109664    -0.14300
C128        C  0.05950396  0.32587032  0.08015950    -0.10300
C129        C  0.07260159  0.34394647  0.10563913    -0.11900
C130        C  0.05159488  0.31814408  0.22120502    -0.10300
C131        C  0.06754911  0.33719635  0.19989921    -0.11900
C132        C  0.07522408  0.16731333  0.22806918    -0.10300
C133        C  0.06275915  0.18578653  0.25373020    -0.11900
C134        C  0.06646190  0.17155836  0.13388762    -0.10300
C135        C  0.05106739  0.19180478  0.11374250    -0.10400
C136        C  0.43695685  0.17707032  0.09106326    -0.10300
C137        C  0.42381897  0.15804376  0.11544816    -0.11900
C138        C  0.44177610  0.18239108  0.22581756    -0.10300
C139        C  0.42626303  0.16110076  0.20832357    -0.11900
C140        C  0.41959561  0.33673506  0.22238608    -0.10300
C141        C  0.43629954  0.31940114  0.24513004    -0.11900
C142        C  0.41992923  0.33124441  0.12755573    -0.10300
C143        C  0.43824608  0.31267177  0.10894922    -0.11900
C144        C  0.33364498  0.08350165  0.21791420    -0.10300
C145        C  0.31590906  0.06835947  0.24221021    -0.11900
C146        C  0.32645688  0.09015525  0.12157048    -0.10300
C147        C  0.30615194  0.08278128  0.09558020    -0.11900
C148        C  0.17321586  0.06671021  0.10416359    -0.10300
C149        C  0.15112922  0.08168056  0.12032891    -0.11900
C150        C  0.17900689  0.06567356  0.22373211    -0.10300
C151        C  0.15633413  0.07995167  0.20859069    -0.11900
C152        C  0.33478134  0.41920113  0.12322559    -0.10300
C153        C  0.31368658  0.43643593  0.10856968    -0.11900
C154        C  0.33507422  0.42248358  0.21316960    -0.10300
C155        C  0.31331624  0.43793851  0.22906673    -0.11900
C156        C  0.15844055  0.41760709  0.21544940    -0.10300
C157        C  0.17873848  0.42891637  0.23943712    -0.11900
C158        C  0.17656765  0.43997701  0.09654318    -0.10300
C159        C  0.15796203  0.42563832  0.11992089    -0.11900
C160        C  0.17104897  0.31759957  0.24668196    -0.13500
C161        C  0.16273977  0.31446702  0.20552954    -0.28600
H162        H  0.16489987  0.33961317  0.26455739     0.15600
H163        H  0.16856428  0.29179898  0.18877194     0.16100
C164        C  0.16819823  0.32565872  0.10897868    -0.13500
C165        C  0.19762033  0.31523679  0.11915927    -0.28600
H166        H  0.15829060  0.32057191  0.07732930     0.15600
H167        H  0.20879503  0.32013817  0.14996974     0.16100
C168        C  0.31608173  0.32257500  0.26094295    -0.13500
C169        C  0.31169568  0.33232580  0.22100196    -0.28600
H170        H  0.33899587  0.32647724  0.27690153     0.15600
H171        H  0.28954225  0.32579488  0.20437838     0.16100
C172        C  0.31930840  0.31511228  0.13099086    -0.13500
C173        C  0.30855723  0.31819517  0.09105352    -0.28600
H174        H  0.31346295  0.29294440  0.14900834     0.15600
H175        H  0.31389890  0.34044789  0.07299566     0.16100
C176        C  0.30156150  0.19729038  0.20163505    -0.13500
C177        C  0.33064926  0.18619911  0.21340541    -0.28600
H178        H  0.29128745  0.19195143  0.17042217     0.15600
H179        H  0.33963078  0.19125590  0.24549993     0.16100
C180        C  0.32383698  0.17921092  0.07688323    -0.13500
C181        C  0.33654337  0.18811644  0.11444111    -0.28600
H182        H  0.32235123  0.15346342  0.06753364     0.15600
H183        H  0.33445755  0.21341112  0.12571660     0.16100
C184        C  0.18307566  0.17393130  0.24927106    -0.13500
C185        C  0.17171613  0.18048605  0.21030527    -0.28600
H186        H  0.17927728  0.15037959  0.26501331     0.15600
H187        H  0.17710217  0.20417495  0.19548111     0.16100
C188        C  0.16789387  0.17603962  0.11598033    -0.13500
C189        C  0.15865879  0.19361616  0.08180818    -0.28600
H190        H  0.19296605  0.17618826  0.12587416     0.15600
H191        H  0.13341861  0.19653432  0.07386560     0.16100
O192        O  0.22970109  0.22469481  0.42099003    -0.77200
O193        O  0.27184280  0.22627798  0.56110075    -0.77200
O194        O  0.18637378  0.24587284  0.62888028    -0.77200
O195        O  0.32569480  0.21622952  0.33830787    -0.77100
O196        O  0.22556741  0.20991462  0.61924394    -0.77300
O197        O  0.28081954  0.20274035  0.37235755    -0.77200
O198        O  0.29524715  0.21287305  0.62252249    -0.77200
O199        O  0.20004316  0.20523220  0.36879051    -0.77200
C200        C  0.21165820  0.20262940  0.40577176     1.12500
C201        C  0.28985162  0.20714765  0.58250373     1.12400
C202        C  0.19622360  0.21747314  0.61697584     1.12500
C203        C  0.31075148  0.19758310  0.36418275     1.12400
O204        O  0.28909556  0.24920854  0.43461878    -0.77200
O205        O  0.22553060  0.27265688  0.57783085    -0.77200
O206        O  0.19387920  0.27374194  0.39399768    -0.77200
O207        O  0.33406238  0.26657413  0.63133838    -0.77200
O208        O  0.28883523  0.28375042  0.60113428    -0.77200
O209        O  0.24371979  0.29131378  0.40258435    -0.77200
O210        O  0.30386439  0.27147382  0.37334313    -0.77100
O211        O  0.22485049  0.30851019  0.62838063    -0.77200
Co212      Co  0.26145994  0.24820528  0.38550696     1.51500
Co213      Co  0.25690570  0.24526369  0.61291969     1.51700
Co214      Co  0.20679802  0.27821697  0.67076711     1.51600
Co215      Co  0.28730689  0.23933387  0.32703402     1.51500
O216        O  0.24005394  0.25535718  0.32963069    -1.39100
C217        C  0.30724176  0.26849778  0.41393981     1.12500
C218        C  0.21919076  0.30158764  0.59025244     1.12500
C219        C  0.21400528  0.29439095  0.40874367     1.12500
C220        C  0.31964270  0.28564862  0.60590999     1.12500
O221        O  0.29407397  0.46682107  0.37770885    -0.77200
O222        O  0.28504908  0.01659405  0.59012292    -0.77200
O223        O  0.29467688  0.45847833  0.61097948    -0.77200
O224        O  0.27231334  0.06691613  0.37345020    -0.77100
O225        O  0.27535806  0.48470072  0.55310485    -0.77300
O226        O  0.29390230  0.01840501  0.37355188    -0.77200
O227        O  0.28011534  0.06321583  0.62085893    -0.77200
O228        O  0.25826034  0.42958028  0.36609311    -0.77200
C229        C  0.28539002  0.43765236  0.38129615     1.12500
C230        C  0.29364286  0.04572058  0.59350641     1.12400
C231        C  0.29423881  0.46370496  0.56976444     1.12500
C232        C  0.29530892  0.04817190  0.38410648     1.12400
O233        O  0.23521879  0.03550584  0.42325283    -0.77200
O234        O  0.21653754  0.48696801  0.58982356    -0.77200
O235        O  0.19839513  0.46367767  0.36017056    -0.77200
O236        O  0.21135252  0.04768056  0.62357092    -0.77200
O237        O  0.22284608  0.02160404  0.56211074    -0.77200
O238        O  0.22934077  0.46823248  0.41771755    -0.77200
O239        O  0.20342502  0.05555881  0.37385092    -0.77100
O240        O  0.22736913  0.44035565  0.61915544    -0.77200
Co241      Co  0.25161207  0.99811255  0.38558655     1.51500
Co242      Co  0.24278847  0.00091710  0.60985089     1.51700
Co243      Co  0.23680778  0.46014813  0.32270967     1.51600
Co244      Co  0.23653160  0.05833275  0.33005176     1.51500
O245        O  0.23600847  0.00647774  0.32765011    -1.39100
C246        C  0.21019219  0.05163928  0.41260553     1.12500
C247        C  0.21022807  0.45722868  0.59453335     1.12500
C248        C  0.20250414  0.46080418  0.40039876     1.12500
C249        C  0.20602126  0.04205997  0.58336967     1.12500
O250        O  0.44662197  0.28007572  0.37985728    -0.77200
O251        O  0.05035190  0.28958571  0.63170857    -0.77200
O252        O  0.03240213  0.27496937  0.43133447    -0.77200
O253        O  0.46057977  0.27163934  0.57125104    -0.77100
O254        O  0.04427961  0.30780412  0.37708825    -0.77300
O255        O  0.44532069  0.30105892  0.62693977    -0.77200
O256        O  0.02671272  0.28293652  0.56878010    -0.77200
O257        O  0.46921008  0.26532625  0.44259652    -0.77200
C258        C  0.44913228  0.28242216  0.42098621     1.12500
C259        C  0.04773547  0.29725333  0.59164386     1.12400
C260        C  0.04312063  0.30220187  0.41666446     1.12500
C261        C  0.44836662  0.29770877  0.58725500     1.12400
O262        O  0.42057139  0.23442745  0.61775203    -0.77200
O263        O  0.07204905  0.24268011  0.38168430    -0.77200
O264        O  0.48084375  0.20706601  0.40080628    -0.77200
O265        O  0.03149316  0.22164886  0.60385375    -0.77200
O266        O  0.07834995  0.22874459  0.63595073    -0.77200
O267        O  0.43598225  0.21772503  0.37005472    -0.77200
O268        O  0.46159446  0.20311009  0.60357180    -0.77100
O269        O  0.03302075  0.20830827  0.39433665    -0.77200
Co270      Co  0.46209040  0.24769640  0.33429204     1.51500
Co271      Co  0.04077118  0.24519738  0.66393588     1.51700
Co272      Co  0.49657399  0.25422257  0.39661915     1.51600
Co273      Co  0.49256774  0.23854800  0.59626830     1.51500
O274        O  0.51245941  0.25168432  0.33832677    -1.39100
C275        C  0.43248774  0.20918154  0.59949797     1.12500
C276        C  0.06189231  0.21602980  0.39855711     1.12500
C277        C  0.45126919  0.20087720  0.39673495     1.12500
C278        C  0.06168837  0.21536224  0.60645537     1.12500
C279        C  0.13604508  0.13532633  0.54832630     0.48400
H280        H  0.13278014  0.13328896  0.58355390    -0.00600
C281        C  0.14359427  0.13982881  0.46617301     0.48500
H282        H  0.14565218  0.14150413  0.43085493    -0.00600
C283        C  0.16520994  0.15605844  0.53565129    -0.14300
C284        C  0.14188215  0.10188117  0.52615953    -0.14000
C285        C  0.10817908  0.15277197  0.52528419    -0.14400
C286        C  0.16955761  0.15812886  0.49235292    -0.14400
C287        C  0.14615086  0.10437208  0.48277685    -0.14000
C288        C  0.11208234  0.15513715  0.48161198    -0.14300
C289        C  0.36541508  0.12620354  0.44759223     0.48400
H290        H  0.36996922  0.12345093  0.41278917    -0.00600
C291        C  0.35602605  0.13133041  0.52912418     0.48500
H292        H  0.35334342  0.13261098  0.56430840    -0.00600
C293        C  0.33670650  0.14799105  0.45901654    -0.14300
C294        C  0.35645897  0.09328660  0.46847827    -0.14000
C295        C  0.39379279  0.14220114  0.47182414    -0.14400
C296        C  0.33172434  0.15123935  0.50229933    -0.14400
C297        C  0.35243847  0.09587990  0.51219790    -0.14000
C298        C  0.38842412  0.14525228  0.51510312    -0.14300
C299        C  0.13083358  0.37377298  0.45797319     0.48400
H300        H  0.12619826  0.37567434  0.42294796    -0.00600
C301        C  0.14156996  0.36860967  0.53984617     0.48500
H302        H  0.14605367  0.36632020  0.57484494    -0.00600
C303        C  0.15610945  0.34796063  0.46957215    -0.14300
C304        C  0.14419489  0.40568185  0.47794115    -0.14000
C305        C  0.10121290  0.36313756  0.48388254    -0.14400
C306        C  0.16195256  0.34492813  0.51258864    -0.14400
C307        C  0.14910841  0.40300455  0.52142149    -0.14000
C308        C  0.10680117  0.36049288  0.52696662    -0.14300
C309        C  0.36528256  0.37531214  0.53246035     0.48400
H310        H  0.36693945  0.38259426  0.56673509    -0.00600
C311        C  0.36091527  0.35801801  0.45253948     0.48500
H312        H  0.35944361  0.35107645  0.41815107    -0.00600
C313        C  0.34151145  0.34725051  0.52393936    -0.14300
C314        C  0.35255945  0.40275331  0.50287326    -0.14000
C315        C  0.39702754  0.36242592  0.51409432    -0.14400
C316        C  0.33986725  0.33726896  0.48233830    -0.14400
C317        C  0.34952429  0.39315545  0.46071561    -0.14000
C318        C  0.39458353  0.35442423  0.47165906    -0.14300
C319        C  0.05794472  0.32602787  0.44449196    -0.10300
C320        C  0.07544554  0.34497758  0.46322117    -0.11900
C321        C  0.06812688  0.32235464  0.57320510    -0.10300
C322        C  0.08576085  0.34131204  0.55461970    -0.11900
C323        C  0.08803652  0.17438152  0.55053829    -0.10300
C324        C  0.07569340  0.19270449  0.57622107    -0.11900
C325        C  0.09460611  0.17772133  0.45306517    -0.10300
C326        C  0.08157532  0.19584257  0.42705031    -0.10400
C327        C  0.43469670  0.17745797  0.42428618    -0.10300
C328        C  0.41786864  0.16083455  0.44774774    -0.11900
C329        C  0.41461156  0.18831418  0.57004052    -0.10300
C330        C  0.40414724  0.16905773  0.54348655    -0.11900
C331        C  0.41920811  0.34376169  0.54118833    -0.10300
C332        C  0.43470987  0.32327969  0.56058122    -0.11900
C333        C  0.41539955  0.33014763  0.45353333    -0.10300
C334        C  0.43106303  0.30752624  0.44094515    -0.11900
C335        C  0.33425838  0.07294928  0.53854274    -0.10300
C336        C  0.31704597  0.05929298  0.56428040    -0.11900
C337        C  0.33766698  0.07095332  0.44131514    -0.10300
C338        C  0.31976963  0.05933870  0.41425174    -0.11900
C339        C  0.18863966  0.06634522  0.44290149    -0.10300
C340        C  0.16815417  0.08211789  0.46096269    -0.11900
C341        C  0.17928139  0.05850084  0.56401803    -0.10300
C342        C  0.15911395  0.07647335  0.54921925    -0.11900
C343        C  0.32552044  0.40638947  0.43163003    -0.10300
C344        C  0.30541371  0.41671216  0.40703569    -0.11900
C345        C  0.33387143  0.42896095  0.52195003    -0.10300
C346        C  0.31661922  0.44659279  0.54279110    -0.11900
C347        C  0.16750686  0.42621189  0.54672228    -0.10300
C348        C  0.18540120  0.44187250  0.56944763    -0.11900
C349        C  0.17796406  0.44568547  0.42702944    -0.10300
C350        C  0.16089188  0.42972688  0.45091819    -0.11900
C351        C  0.20253052  0.32662829  0.56434110    -0.13500
C352        C  0.18323883  0.31931733  0.53141186    -0.28600
H353        H  0.20298594  0.35181373  0.57635555     0.15600
H354        H  0.18250886  0.29438712  0.51863280     0.16100
C355        C  0.17068775  0.32731110  0.43667222    -0.13500
C356        C  0.20213521  0.32057437  0.43641027    -0.28600
H357        H  0.15471429  0.31698688  0.41248558     0.15600
H358        H  0.21861136  0.33289143  0.45831981     0.16100
C359        C  0.33796577  0.31031344  0.58299713    -0.13500
C360        C  0.32308564  0.33137124  0.55721216    -0.28600
H361        H  0.36401702  0.30911899  0.58398146     0.15600
H362        H  0.29708746  0.33165924  0.55436444     0.16100
C363        C  0.32032038  0.30900317  0.46790379    -0.13500
C364        C  0.32973684  0.29052072  0.43511948    -0.28600
H365        H  0.29750503  0.30402613  0.48333524     0.15600
H366        H  0.35227296  0.29552082  0.41909259     0.16100
C367        C  0.30440718  0.17803461  0.56317958    -0.13500
C368        C  0.30935645  0.17579035  0.52096023    -0.28600
H369        H  0.31362329  0.15977781  0.58523342     0.15600
H370        H  0.29960773  0.19485101  0.50025036     0.16100
C371        C  0.32814299  0.17292226  0.38855574    -0.13500
C372        C  0.31638584  0.16346521  0.42641491    -0.28600
H373        H  0.35284709  0.16819114  0.37986418     0.15600
H374        H  0.29219120  0.17030593  0.43551653     0.16100
C375        C  0.17423503  0.19457793  0.59511801    -0.13500
C376        C  0.18603634  0.17308393  0.56661945    -0.28600
H377        H  0.14852619  0.19830023  0.59766757     0.15600
H378        H  0.21173169  0.17174400  0.56115670     0.16100
C379        C  0.19367458  0.17953409  0.47234071    -0.13500
C380        C  0.20161581  0.17488027  0.43157257    -0.28600
H381        H  0.20084126  0.20201353  0.48889364     0.15600
H382        H  0.19488747  0.15246237  0.41475489     0.16100
O383        O  0.21673778  0.20957431  0.72489418    -0.77200
O384        O  0.27008219  0.21946648  0.90052923    -0.77200
O385        O  0.18208894  0.24179011  0.96055784    -0.77200
O386        O  0.32020452  0.23167514  0.69933608    -0.77100
O387        O  0.21983902  0.20389449  0.95261364    -0.77300
O388        O  0.27968764  0.20079970  0.71479683    -0.77200
O389        O  0.29366827  0.20907973  0.96312421    -0.77200
O390        O  0.18308454  0.25074602  0.71494469    -0.77200
C391        C  0.18916559  0.22174388  0.72844325     1.12500
C392        C  0.28975082  0.20285910  0.92296639     1.12400
C393        C  0.19103766  0.21334649  0.94779156     1.12500
C394        C  0.30942703  0.20532699  0.71481105     1.12400
O395        O  0.29084585  0.26785571  0.75015049    -0.77200
O396        O  0.22598887  0.26741580  0.91558271    -0.77200
O397        O  0.22404761  0.30972941  0.71150392    -0.77200
O398        O  0.32990461  0.26433546  0.97444530    -0.77200
O399        O  0.28563571  0.27680679  0.93896437    -0.77200
O400        O  0.22748234  0.27316813  0.76318862    -0.77200
O401        O  0.29722447  0.29722807  0.69107828    -0.77100
O402        O  0.21994623  0.30343363  0.96664527    -0.77200
Co403      Co  0.25362792  0.23786138  0.73486335     1.51500
Co404      Co  0.25339923  0.23813620  0.95081930     1.51700
Co405      Co  0.20079963  0.27189348  0.00619267     1.51600
Co406      Co  0.29427722  0.25683625  0.65681433     1.51500
O407        O  0.24869207  0.25459236  0.67461963    -1.39100
C408        C  0.30036554  0.29401932  0.73106364     1.12500
C409        C  0.22043045  0.29650077  0.92763676     1.12500
C410        C  0.22301694  0.30255472  0.75031894     1.12500
C411        C  0.31587033  0.28102525  0.94603667     1.12500
O412        O  0.27864350  0.47355519  0.76819573    -0.77200
O413        O  0.29430728  0.02597968  0.95321720    -0.77200
O414        O  0.28617258  0.45384375  0.95543430    -0.77200
O415        O  0.28606034  0.05968540  0.70549752    -0.77100
O416        O  0.27359065  0.48078656  0.89522219    -0.77300
O417        O  0.27626665  0.02157130  0.75178579    -0.77200
O418        O  0.26827074  0.07287594  0.95798990    -0.77200
O419        O  0.29770542  0.45537876  0.70574044    -0.77200
C420        C  0.29830777  0.45572471  0.74727664     1.12500
C421        C  0.29265948  0.05644213  0.94522124     1.12400
C422        C  0.29039745  0.45943456  0.91502433     1.12500
C423        C  0.29267534  0.04555041  0.74018180     1.12400
O424        O  0.21452376  0.01945588  0.77203159    -0.77200
O425        O  0.21230944  0.48761505  0.92472376    -0.77200
O426        O  0.22980567  0.43673140  0.70458558    -0.77200
O427        O  0.20001259  0.05013573  0.95780829    -0.77200
O428        O  0.23343175  0.03588858  0.90859438    -0.77200
O429        O  0.21710388  0.48179794  0.73570394    -0.77200
O430        O  0.21563192  0.05240708  0.71458849    -0.77100
O431        O  0.21660772  0.44126286  0.95732131    -0.77200
Co432      Co  0.23746958  0.00229406  0.72538915     1.51500
Co433      Co  0.25389518  0.00077060  0.94705864     1.51700
Co434      Co  0.26100987  0.45535590  0.66060386     1.51600
Co435      Co  0.24935675  0.04871453  0.66636286     1.51500
O436        O  0.25772232  0.99480535  0.66888111    -1.39100
C437        C  0.20412097  0.04423106  0.75141210     1.12500
C438        C  0.20297168  0.45881212  0.92957144     1.12500
C439        C  0.21198147  0.45191645  0.73035891     1.12500
C440        C  0.20722474  0.04937695  0.91930040     1.12500
O441        O  0.44885526  0.29647783  0.71133005    -0.77200
O442        O  0.06831302  0.26928902  0.95351229    -0.77200
O443        O  0.03016309  0.30052152  0.72803140    -0.77200
O444        O  0.47305864  0.28610384  0.94868663    -0.77100
O445        O  0.06802379  0.26647562  0.71111514    -0.77300
O446        O  0.42555007  0.27050149  0.97298731    -0.77200
O447        O  0.02800196  0.30176809  0.93877621    -0.77200
O448        O  0.46453902  0.26106779  0.75892930    -0.77200
C449        C  0.45109983  0.28815708  0.74989771     1.12500
C450        C  0.05714040  0.29515680  0.93563011     1.12400
C451        C  0.05907807  0.29246239  0.73039748     1.12500
C452        C  0.44238340  0.29005743  0.95007361     1.12400
O453        O  0.45410506  0.21194152  0.95370358    -0.77200
O454        O  0.03751901  0.20364841  0.69684690    -0.77200
O455        O  0.47358058  0.19970091  0.71439259    -0.77200
O456        O  0.02926137  0.23442763  0.90476852    -0.77200
O457        O  0.04245570  0.20286389  0.95954905    -0.77200
O458        O  0.42786406  0.22654313  0.70747341    -0.77200
O459        O  0.47119432  0.23390585  0.89325853    -0.77100
O460        O  0.03127890  0.23134305  0.75727020    -0.77200
Co461      Co  0.43903282  0.26385670  0.66576005     1.51500
Co462      Co  0.04906516  0.23906824  0.99976179     1.51700
Co463      Co  0.49837797  0.24094293  0.72047787     1.51600
Co464      Co  0.49569624  0.24112901  0.94483245     1.51500
O465        O  0.48681819  0.25168456  0.65891746    -1.39100
C466        C  0.45358143  0.21296477  0.91225083     1.12500
C467        C  0.04007370  0.20557457  0.73720140     1.12500
C468        C  0.44374402  0.20144727  0.72048558     1.12500
C469        C  0.04102674  0.20787064  0.91997527     1.12500
C470        C  0.13025830  0.13691259  0.87312840     0.48400
H471        H  0.12934401  0.13547346  0.90862360    -0.00600
C472        C  0.13152887  0.13919071  0.78980131     0.48500
H473        H  0.13246905  0.14013080  0.75424095    -0.00600
C474        C  0.15388852  0.16277975  0.85593608    -0.14300
C475        C  0.14200454  0.10460789  0.85218078    -0.14000
C476        C  0.09775268  0.14620562  0.85185062    -0.14400
C477        C  0.15410132  0.16418864  0.81190607    -0.14400
C478        C  0.14163219  0.10581897  0.80847240    -0.14000
C479        C  0.09857201  0.14677096  0.80805961    -0.14300
C480        C  0.36588500  0.12434553  0.78788850     0.48400
H481        H  0.36614537  0.11931306  0.75285421    -0.00600
C482        C  0.36497010  0.13604043  0.86949417     0.48500
H483        H  0.36550550  0.14120719  0.90437386    -0.00600
C484        C  0.34066683  0.14946875  0.80079462    -0.14300
C485        C  0.35687239  0.09397133  0.81513625    -0.14000
C486        C  0.39723862  0.13948456  0.80442195    -0.14400
C487        C  0.33976583  0.15556567  0.84379542    -0.14400
C488        C  0.35598453  0.10007587  0.85885388    -0.14000
C489        C  0.39706151  0.14528505  0.84780078    -0.14300
C490        C  0.14510755  0.36399448  0.79525087     0.48400
H491        H  0.14899935  0.35925536  0.76057330    -0.00600
C492        C  0.13647161  0.37385782  0.87634266     0.48500
H493        H  0.13263455  0.37820955  0.91112434    -0.00600
C494        C  0.16870539  0.34552272  0.82430096    -0.14300
C495        C  0.14967678  0.40022549  0.80813195    -0.14000
C496        C  0.11234373  0.35179876  0.81114327    -0.14400
C497        C  0.16453682  0.35113449  0.86705977    -0.14400
C498        C  0.14506350  0.40543337  0.85138102    -0.14000
C499        C  0.10808596  0.35613342  0.85459795    -0.14300
C500        C  0.36507417  0.36860508  0.88368222     0.48400
H501        H  0.36322797  0.37101488  0.91905924    -0.00600
C502        C  0.36915761  0.36310452  0.80103342     0.48500
H503        H  0.37149346  0.36093707  0.76576294    -0.00600
C504        C  0.34083946  0.34429621  0.86424895    -0.14300
C505        C  0.35828734  0.40098942  0.85971126    -0.14000
C506        C  0.39748578  0.35487289  0.86890570    -0.14400
C507        C  0.34261582  0.34145987  0.82068982    -0.14400
C508        C  0.36054965  0.39821864  0.81608301    -0.14000
C509        C  0.39976226  0.35174471  0.82512468    -0.14300
C510        C  0.07991776  0.31147162  0.75853971    -0.10300
C511        C  0.09388682  0.32925643  0.78394686    -0.11900
C512        C  0.07614913  0.31572263  0.90719041    -0.10300
C513        C  0.08904646  0.33390522  0.88137185    -0.11900
C514        C  0.07379728  0.16496871  0.87471773    -0.10300
C515        C  0.05650339  0.18414553  0.89297852    -0.11900
C516        C  0.07441252  0.16294027  0.78177398    -0.10300
C517        C  0.05691928  0.18026311  0.76053043    -0.10400
C518        C  0.42875176  0.17699001  0.74800933    -0.10300
C519        C  0.41645091  0.15879658  0.77428532    -0.11900
C520        C  0.43521181  0.18873156  0.88802733    -0.10300
C521        C  0.41901566  0.16841727  0.86896744    -0.11900
C522        C  0.41600884  0.33490577  0.89893351    -0.10300
C523        C  0.42790638  0.31571138  0.92423423    -0.11900
C524        C  0.42195949  0.32894518  0.80404435    -0.10300
C525        C  0.43699379  0.30945156  0.78228730    -0.11900
C526        C  0.33505616  0.08236894  0.88947230    -0.10300
C527        C  0.31649681  0.07115445  0.91624006    -0.11900
C528        C  0.33655270  0.07015867  0.79318029    -0.10300
C529        C  0.31778764  0.05741057  0.76838784    -0.11900
C530        C  0.17904063  0.06398854  0.76854483    -0.10300
C531        C  0.15989113  0.08264118  0.78369829    -0.11900
C532        C  0.18541054  0.06577349  0.89024451    -0.10300
C533        C  0.16461070  0.08258792  0.87390168    -0.11900
C534        C  0.34208672  0.42014930  0.78839125    -0.10300
C535        C  0.32301147  0.43736061  0.76939585    -0.11900
C536        C  0.33704575  0.42524854  0.87897212    -0.10300
C537        C  0.31623814  0.44247292  0.89390399    -0.11900
C538        C  0.16190774  0.43069403  0.87573705    -0.10300
C539        C  0.17894673  0.44529028  0.90098849    -0.11900
C540        C  0.18787484  0.43517271  0.75619364    -0.10300
C541        C  0.16943556  0.42121295  0.78043239    -0.11900
C542        C  0.21069179  0.32114856  0.89720613    -0.13500
C543        C  0.18159149  0.33430246  0.90184475    -0.28600
H544        H  0.22534904  0.32497547  0.86916581     0.15600
H545        H  0.16837893  0.33034951  0.93135854     0.16100
C546        C  0.18893483  0.31976647  0.80692418    -0.13500
C547        C  0.21098666  0.32780036  0.77841297    -0.28600
H548        H  0.18394143  0.29420553  0.81525455     0.15600
H549        H  0.21456879  0.35353846  0.76959605     0.16100
C550        C  0.33374766  0.30620960  0.92305617    -0.13500
C551        C  0.32059418  0.32290876  0.89061896    -0.28600
H552        H  0.35873552  0.30993508  0.93169844     0.15600
H553        H  0.29611081  0.31790977  0.88029328     0.16100
C554        C  0.32383910  0.31671309  0.79646917    -0.13500
C555        C  0.31731494  0.32000816  0.75478572    -0.28600
H556        H  0.31518834  0.29507969  0.81346835     0.15600
H557        H  0.32486309  0.34188654  0.73744020     0.16100
C558        C  0.30861918  0.17678152  0.90389320    -0.13500
C559        C  0.31699704  0.17877372  0.86288061    -0.28600
H560        H  0.31782537  0.15756611  0.92473270     0.15600
H561        H  0.30739415  0.19843684  0.84292429     0.16100
C562        C  0.33055702  0.18245835  0.73728026    -0.13500
C563        C  0.31893267  0.16489551  0.76992538    -0.28600
H564        H  0.35623388  0.18379245  0.73174119     0.15600
H565        H  0.29364348  0.16614943  0.77806513     0.16100
C566        C  0.16830470  0.19282281  0.92297720    -0.13500
C567        C  0.17635463  0.18172163  0.88394112    -0.28600
H568        H  0.14388940  0.19004982  0.93439938     0.15600
H569        H  0.19994043  0.18780128  0.87157674     0.16100
C570        C  0.17555676  0.18569558  0.78721964    -0.13500
C571        C  0.16546537  0.20293091  0.75294846    -0.28600
H572        H  0.20046201  0.18737841  0.79747780     0.15600
H573        H  0.14021721  0.20388902  0.74421695     0.16100
O574        O  0.21399636  0.70192839  0.05584770    -0.77200
O575        O  0.26564963  0.72508736  0.22583195    -0.77200
O576        O  0.18034927  0.74297721  0.29681370    -0.77200
O577        O  0.31985530  0.71890149  0.02540013    -0.77100
O578        O  0.22048271  0.70863956  0.28484050    -0.77300
O579        O  0.27668705  0.69204593  0.03949456    -0.77200
O580        O  0.29214835  0.71213194  0.28587727    -0.77200
O581        O  0.18006245  0.74322020  0.04913677    -0.77200
C582        C  0.18676139  0.71429881  0.06208308     1.12500
C583        C  0.28519015  0.70666196  0.24636952     1.12400
C584        C  0.19087175  0.71535113  0.28321557     1.12500
C585        C  0.30690206  0.69378871  0.03993660     1.12400
O586        O  0.28986962  0.75970700  0.07359563    -0.77200
O587        O  0.21583775  0.77173381  0.24365091    -0.77200
O588        O  0.22023063  0.80194435  0.04519130    -0.77200
O589        O  0.32142193  0.77028795  0.28446035    -0.77200
O590        O  0.27576744  0.78660621  0.26067644    -0.77200
O591        O  0.22763447  0.76446321  0.09486304    -0.77200
O592        O  0.29598355  0.78452035  0.01151451    -0.77100
O593        O  0.21351940  0.80767824  0.29510123    -0.77200
Co594      Co  0.25173120  0.73001408  0.06203702     1.51500
Co595      Co  0.24971954  0.74584666  0.27599693     1.51700
Co596      Co  0.20055567  0.77562079  0.33833040     1.51600
Co597      Co  0.29060734  0.74073024  0.98708482     1.51500
O598        O  0.24409998  0.74924695  0.00239474    -1.39100
C599        C  0.29911857  0.78453583  0.05152031     1.12500
C600        C  0.20813649  0.80026290  0.25692374     1.12500
C601        C  0.22030167  0.79353880  0.08374594     1.12500
C602        C  0.30602735  0.78920899  0.26156610     1.12500
O603        O  0.28846533  0.97427057  0.05443418    -0.77200
O604        O  0.29730591  0.52146962  0.28006026    -0.77200
O605        O  0.28200214  0.95340477  0.27525752    -0.77200
O606        O  0.27828575  0.56701208  0.05210058    -0.77100
O607        O  0.26500622  0.98086766  0.21709109    -0.77300
O608        O  0.29672567  0.51723149  0.05510823    -0.77200
O609        O  0.27262257  0.56873726  0.29009585    -0.77200
O610        O  0.25498229  0.93532164  0.03770187    -0.77200
C611        C  0.28160146  0.94431762  0.05403157     1.12500
C612        C  0.29603659  0.55235355  0.27467001     1.12400
C613        C  0.28332981  0.95956663  0.23427785     1.12500
C614        C  0.29930704  0.54700683  0.06546831     1.12400
O615        O  0.23517755  0.53694092  0.09805810    -0.77200
O616        O  0.20575383  0.98155451  0.25266894    -0.77200
O617        O  0.19324917  0.96690406  0.02851137    -0.77200
O618        O  0.20450630  0.54760381  0.29467824    -0.77200
O619        O  0.23472481  0.53254111  0.24195122    -0.77200
O620        O  0.22211169  0.97327214  0.08753284    -0.77200
O621        O  0.20949711  0.56087944  0.04507122    -0.77100
O622        O  0.21394833  0.93672651  0.28793521    -0.77200
Co623      Co  0.25285263  0.49878110  0.06231627     1.51500
Co624      Co  0.25637725  0.49647935  0.27662846     1.51700
Co625      Co  0.23294660  0.96463568  0.99324823     1.51600
Co626      Co  0.24496497  0.56052870  0.00517068     1.51500
O627        O  0.24022267  0.50867824  0.00307177    -1.39100
C628        C  0.21210741  0.55486000  0.08414159     1.12500
C629        C  0.19806101  0.95243043  0.26051372     1.12500
C630        C  0.19635441  0.96408129  0.06890386     1.12500
C631        C  0.20940074  0.54610439  0.25551778     1.12500
O632        O  0.45668089  0.80213461  0.03807472    -0.77200
O633        O  0.04322245  0.79924836  0.28694744    -0.77200
O634        O  0.01961493  0.79690355  0.04694211    -0.77200
O635        O  0.46644687  0.79301669  0.26634062    -0.77100
O636        O  0.06452340  0.76836948  0.04034586    -0.77300
O637        O  0.41964692  0.78599883  0.29857744    -0.77200
O638        O  0.02858812  0.76352400  0.23892030    -0.77200
O639        O  0.46830111  0.76812176  0.08886345    -0.77200
C640        C  0.45597777  0.79514637  0.07701636     1.12500
C641        C  0.04210493  0.79072074  0.24835540     1.12400
C642        C  0.04955535  0.79434638  0.05195771     1.12500
C643        C  0.43638382  0.80031496  0.27007247     1.12400
O644        O  0.44666250  0.72512483  0.28725472    -0.77200
O645        O  0.04142555  0.69913378  0.04313300    -0.77200
O646        O  0.47501363  0.70380352  0.05105772    -0.77200
O647        O  0.01970347  0.70176462  0.28337294    -0.77200
O648        O  0.06502995  0.72995694  0.29043543    -0.77200
O649        O  0.43084698  0.73314435  0.04309865    -0.77200
O650        O  0.47229689  0.73330170  0.22653121    -0.77100
O651        O  0.02830265  0.73498143  0.09132781    -0.77200
Co652      Co  0.44334365  0.76756640  0.99731819     1.51500
Co653      Co  0.05352907  0.76656661  0.33212325     1.51700
Co654      Co  0.50128252  0.74431474  0.05224358     1.51600
Co655      Co  0.49171916  0.74925365  0.27807830     1.51500
O656        O  0.48986271  0.75196909  0.99006790    -1.39100
C657        C  0.45045977  0.71852561  0.24692655     1.12500
C658        C  0.04119696  0.70763478  0.08173257     1.12500
C659        C  0.44528821  0.70733477  0.05709747     1.12500
C660        C  0.04965425  0.70419115  0.27844188     1.12500
C661        C  0.13356721  0.63356241  0.21587492     0.48400
H662        H  0.13524035  0.63180119  0.25135450    -0.00600
C663        C  0.12972096  0.63715392  0.13296264     0.48500
H664        H  0.12791766  0.63815046  0.09747670    -0.00600
C665        C  0.15638732  0.65929118  0.19635740    -0.14300
C666        C  0.14265390  0.60130516  0.19326078    -0.14000
C667        C  0.10038160  0.64412842  0.19956802    -0.14400
C668        C  0.15432038  0.66116885  0.15240627    -0.14400
C669        C  0.14144416  0.60319488  0.14959798    -0.14000
C670        C  0.09811839  0.64659870  0.15571742    -0.14300
C671        C  0.36747035  0.62596806  0.12041280     0.48400
H672        H  0.37004351  0.62031616  0.08575817    -0.00600
C673        C  0.36177364  0.63869065  0.20139584     0.48500
H674        H  0.35971175  0.64447623  0.23603032    -0.00600
C675        C  0.33941087  0.64844735  0.13076662    -0.14300
C676        C  0.35940374  0.59522845  0.14717365    -0.14000
C677        C  0.39669395  0.64430533  0.13908989    -0.14400
C678        C  0.33658491  0.65602264  0.17298064    -0.14400
C679        C  0.35637551  0.60176910  0.19064401    -0.14000
C680        C  0.39417731  0.65015096  0.18235393    -0.14300
C681        C  0.13094933  0.87073491  0.11476576     0.48400
H682        H  0.13193810  0.87358111  0.07935645    -0.00600
C683        C  0.12874581  0.86357739  0.19733066     0.48500
H684        H  0.12795517  0.86031610  0.23266320    -0.00600
C685        C  0.15561837  0.84625112  0.13230958    -0.14300
C686        C  0.13846725  0.90275819  0.13901223    -0.14000
C687        C  0.09875600  0.85702281  0.13071869    -0.14400
C688        C  0.15403629  0.84187670  0.17566626    -0.14400
C689        C  0.13766302  0.89905788  0.18289601    -0.14000
C690        C  0.09730109  0.85311613  0.17444565    -0.14300
C691        C  0.35682420  0.87259118  0.19581306     0.48400
H692        H  0.35382662  0.87685494  0.23074869    -0.00600
C693        C  0.36325260  0.86241426  0.11429073     0.48500
H694        H  0.36674735  0.85829441  0.07948786    -0.00600
C695        C  0.33474711  0.84566560  0.17763028    -0.14300
C696        C  0.34779063  0.90264752  0.16858432    -0.14000
C697        C  0.39060359  0.86096138  0.18387485    -0.14400
C698        C  0.33859117  0.83951833  0.13514187    -0.14400
C699        C  0.34977039  0.89689078  0.12508264    -0.14000
C700        C  0.39429221  0.85609518  0.14068867    -0.14300
C701        C  0.06589953  0.81930016  0.07660969    -0.10300
C702        C  0.07919355  0.83796449  0.10117103    -0.11900
C703        C  0.05802159  0.81168663  0.21673357    -0.10300
C704        C  0.07438769  0.83081572  0.19578391    -0.11900
C705        C  0.07960407  0.66172626  0.22869430    -0.10300
C706        C  0.06568346  0.67950218  0.25340909    -0.11900
C707        C  0.07443079  0.66785777  0.13396529    -0.10300
C708        C  0.05759653  0.68664968  0.11305115    -0.10400
C709        C  0.42882609  0.68374188  0.08481813    -0.10300
C710        C  0.41588167  0.66513594  0.11026655    -0.11900
C711        C  0.43107078  0.69346266  0.22542369    -0.10300
C712        C  0.41490540  0.67330424  0.20586073    -0.11900
C713        C  0.40959520  0.84299591  0.21575542    -0.10300
C714        C  0.42226358  0.82479229  0.24175102    -0.11900
C715        C  0.41969131  0.83526577  0.12314307    -0.10300
C716        C  0.43819707  0.81658691  0.10550830    -0.11900
C717        C  0.33703407  0.58179359  0.22044558    -0.10300
C718        C  0.31936295  0.56836412  0.24639871    -0.11900
C719        C  0.34059705  0.57045953  0.12373913    -0.10300
C720        C  0.32313774  0.55759189  0.09702835    -0.11900
C721        C  0.18756680  0.56911900  0.11069647    -0.10300
C722        C  0.16503227  0.58401532  0.12567295    -0.11900
C723        C  0.18599084  0.56168880  0.22859615    -0.10300
C724        C  0.16477121  0.57846815  0.21377753    -0.11900
C725        C  0.32569519  0.91070870  0.09608040    -0.10300
C726        C  0.30420488  0.92240981  0.07458163    -0.11900
C727        C  0.32625820  0.92679516  0.18795411    -0.10300
C728        C  0.30712393  0.94299907  0.20824062    -0.11900
C729        C  0.15507466  0.92092699  0.21214003    -0.10300
C730        C  0.17292166  0.93630037  0.23579785    -0.11900
C731        C  0.17222756  0.94696375  0.09423331    -0.10300
C732        C  0.15545312  0.92920688  0.11635610    -0.11900
C733        C  0.19122722  0.82465374  0.23091415    -0.13500
C734        C  0.17174595  0.81615505  0.19895948    -0.28600
H735        H  0.19244974  0.85034525  0.24095221     0.15600
H736        H  0.17011790  0.79068226  0.18825122     0.16100
C737        C  0.17676242  0.82833276  0.10305310    -0.13500
C738        C  0.20533798  0.81556228  0.11407132    -0.28600
H739        H  0.16764757  0.82493672  0.07063166     0.15600
H740        H  0.21603118  0.81850790  0.14548936     0.16100
C741        C  0.32346731  0.81441908  0.23949516    -0.13500
C742        C  0.31219784  0.82757122  0.20395705    -0.28600
H743        H  0.34811758  0.81893331  0.24963694     0.15600
H744        H  0.28875033  0.82069455  0.19129246     0.16100
C745        C  0.32209304  0.81204617  0.11345128    -0.13500
C746        C  0.31540777  0.81247225  0.07174301    -0.28600
H747        H  0.31469739  0.79105391  0.13273717     0.15600
H748        H  0.32178392  0.83356999  0.05207259     0.16100
C749        C  0.30072318  0.67835942  0.22699651    -0.13500
C750        C  0.31326941  0.68053796  0.18823489    -0.28600
H751        H  0.30668877  0.65764607  0.24761834     0.15600
H752        H  0.30772299  0.70163920  0.16797845     0.16100
C753        C  0.32636841  0.66969246  0.06131754    -0.13500
C754        C  0.31618132  0.65898565  0.09885868    -0.28600
H755        H  0.35155404  0.66815530  0.05273645     0.15600
H756        H  0.29173297  0.66383530  0.10910396     0.16100
C757        C  0.16910109  0.69293142  0.26012565    -0.13500
C758        C  0.17837989  0.67949853  0.22286680    -0.28600
H759        H  0.14444909  0.69047540  0.27079959     0.15600
H760        H  0.20205566  0.68509682  0.21042868     0.16100
C761        C  0.17484758  0.68227199  0.12551791    -0.13500
C762        C  0.16415973  0.69612423  0.08904389    -0.28600
H763        H  0.19958561  0.68614521  0.13550964     0.15600
H764        H  0.13892062  0.69526460  0.08025078     0.16100
O765        O  0.21825338  0.70680619  0.38730629    -0.77200
O766        O  0.26920472  0.72205331  0.56069571    -0.77200
O767        O  0.18461024  0.74285398  0.62957343    -0.77200
O768        O  0.32251276  0.73160597  0.36333682    -0.77100
O769        O  0.22310153  0.70639736  0.61852810    -0.77300
O770        O  0.28073988  0.70160032  0.37272855    -0.77200
O771        O  0.29309910  0.70926705  0.62230892    -0.77200
O772        O  0.18171472  0.74565470  0.38338388    -0.77200
C773        C  0.19055357  0.71706807  0.39506581     1.12500
C774        C  0.28805530  0.70380468  0.58238101     1.12400
C775        C  0.19400297  0.71480741  0.61584320     1.12500
C776        C  0.31065446  0.70513349  0.37543212     1.12400
O777        O  0.28958469  0.76933698  0.41022340    -0.77200
O778        O  0.22295340  0.76942826  0.57809788    -0.77200
O779        O  0.21689000  0.80722851  0.37966006    -0.77200
O780        O  0.33198776  0.76313396  0.62611401    -0.77200
O781        O  0.28620512  0.78000576  0.59773767    -0.77200
O782        O  0.22729328  0.76956126  0.42854224    -0.77200
O783        O  0.29545499  0.79642970  0.34995921    -0.77100
O784        O  0.22326021  0.80505501  0.62915643    -0.77200
Co785      Co  0.25356241  0.73732306  0.39582076     1.51500
Co786      Co  0.25470028  0.74156659  0.61177859     1.51700
Co787      Co  0.20618946  0.77431342  0.67159633     1.51600
Co788      Co  0.29246037  0.75273951  0.32479437     1.51500
O789        O  0.24512179  0.75697435  0.33679954    -1.39100
C790        C  0.29856045  0.79514895  0.38985967     1.12500
C791        C  0.21664905  0.79820481  0.59128025     1.12500
C792        C  0.21853199  0.79831272  0.41806432     1.12500
C793        C  0.31707721  0.78172098  0.60063745     1.12500
O794        O  0.27184426  0.97548513  0.43200669    -0.77200
O795        O  0.30288600  0.52413676  0.61189434    -0.77200
O796        O  0.29284450  0.94537714  0.62749859    -0.77200
O797        O  0.27112866  0.57313110  0.38088317    -0.77100
O798        O  0.26156212  0.96318381  0.57558913    -0.77300
O799        O  0.29996254  0.52886967  0.38716660    -0.77200
O800        O  0.28229092  0.57250886  0.62295058    -0.77200
O801        O  0.28756372  0.95460547  0.36925395    -0.77200
C802        C  0.29040199  0.95690445  0.41050674     1.12500
C803        C  0.30400734  0.55491964  0.60647100     1.12400
C804        C  0.28714472  0.94885676  0.58812617     1.12500
C805        C  0.29580057  0.55838947  0.39554249     1.12400
O806        O  0.23630978  0.53425404  0.42921850    -0.77200
O807        O  0.20093541  0.97946371  0.62097659    -0.77200
O808        O  0.21958934  0.93595352  0.37368288    -0.77200
O809        O  0.21393041  0.56188516  0.62716899    -0.77200
O810        O  0.24080232  0.54236450  0.57283970    -0.77200
O811        O  0.20936121  0.98210086  0.40370306    -0.77200
O812        O  0.20499858  0.55049905  0.37653012    -0.77100
O813        O  0.22488616  0.93199623  0.62397520    -0.77200
Co814      Co  0.26454346  0.49978160  0.39941524     1.51500
Co815      Co  0.25964905  0.50345114  0.60419028     1.51700
Co816      Co  0.24929917  0.95267385  0.32663321     1.51600
Co817      Co  0.23891342  0.55687805  0.33530849     1.51500
O818        O  0.24833239  0.50731980  0.33901460    -1.39100
C819        C  0.21047247  0.54765432  0.41564069     1.12500
C820        C  0.20123979  0.94924042  0.61191628     1.12500
C821        C  0.20361177  0.95222429  0.40048517     1.12500
C822        C  0.21670173  0.55739560  0.58789870     1.12500
O823        O  0.45954863  0.80631531  0.36414539    -0.77200
O824        O  0.05028796  0.78368031  0.62310488    -0.77200
O825        O  0.03363044  0.77008533  0.42618353    -0.77200
O826        O  0.47370843  0.80336450  0.62034099    -0.77100
O827        O  0.04616484  0.80263165  0.37210507    -0.77300
O828        O  0.42884994  0.77450058  0.62313220    -0.77200
O829        O  0.02691642  0.76950403  0.56081263    -0.77200
O830        O  0.46702084  0.77410844  0.42048706    -0.77200
C831        C  0.45746851  0.80121946  0.40421520     1.12500
C832        C  0.04724662  0.78673568  0.58211650     1.12400
C833        C  0.04447042  0.79734353  0.41161594     1.12500
C834        C  0.44438199  0.80014867  0.61090107     1.12400
O835        O  0.45112905  0.70527161  0.62546005    -0.77200
O836        O  0.07227234  0.73664714  0.37917081    -0.77200
O837        O  0.46876847  0.70818538  0.37913337    -0.77200
O838        O  0.01654233  0.70910936  0.59938830    -0.77200
O839        O  0.06165979  0.72091958  0.62889535    -0.77200
O840        O  0.42996698  0.74246232  0.36966330    -0.77200
O841        O  0.46615602  0.74074415  0.57731868    -0.77100
O842        O  0.03198696  0.70317827  0.38831438    -0.77200
Co843      Co  0.45680683  0.76734393  0.32533217     1.51500
Co844      Co  0.03572434  0.74928309  0.66702400     1.51700
Co845      Co  0.49959389  0.74054613  0.40022987     1.51600
Co846      Co  0.49901539  0.76262692  0.61628255     1.51500
O847        O  0.50382557  0.75816981  0.33978650    -1.39100
C848        C  0.45281304  0.71360072  0.58683294     1.12500
C849        C  0.06063141  0.71020465  0.39486037     1.12500
C850        C  0.44015687  0.71532827  0.38484911     1.12500
C851        C  0.04634797  0.70385261  0.60231784     1.12500
C852        C  0.13555664  0.63640074  0.54492016     0.48400
H853        H  0.13451806  0.63588712  0.58047255    -0.00600
C854        C  0.13783420  0.63646005  0.46195464     0.48500
H855        H  0.13868899  0.63614368  0.42636202    -0.00600
C856        C  0.16118825  0.65988290  0.52685873    -0.14300
C857        C  0.14461495  0.60282982  0.52540034    -0.14000
C858        C  0.10414951  0.64823893  0.52373645    -0.14400
C859        C  0.16218538  0.65988538  0.48285731    -0.14400
C860        C  0.14543496  0.60270177  0.48167804    -0.14000
C861        C  0.10586728  0.64881602  0.47964017    -0.14300
C862        C  0.36909203  0.63174730  0.44965990     0.48400
H863        H  0.37040751  0.62705633  0.41458530    -0.00600
C864        C  0.36711576  0.64145913  0.53156488     0.48500
H865        H  0.36654507  0.64618151  0.56659517    -0.00600
C866        C  0.34233301  0.65459561  0.46294838    -0.14300
C867        C  0.36103917  0.60057034  0.47532854    -0.14000
C868        C  0.39899684  0.64899208  0.46696522    -0.14400
C869        C  0.34108691  0.66005795  0.50584555    -0.14400
C870        C  0.36075401  0.60518927  0.51929214    -0.14000
C871        C  0.39879100  0.65281345  0.51055891    -0.14300
C872        C  0.13020330  0.87073452  0.46009407     0.48400
H873        H  0.12801640  0.87308081  0.42469686    -0.00600
C874        C  0.13534437  0.86477269  0.54267231     0.48500
H875        H  0.13748282  0.86205490  0.57801801    -0.00600
C876        C  0.15380321  0.84416469  0.47436323    -0.14300
C877        C  0.14351442  0.90185835  0.48183071    -0.14000
C878        C  0.09866782  0.86094189  0.48190966    -0.14400
C879        C  0.15642086  0.84051314  0.51775158    -0.14400
C880        C  0.14547145  0.89900386  0.52587588    -0.14000
C881        C  0.10147551  0.85769768  0.52538349    -0.14300
C882        C  0.36463521  0.87044820  0.53999305     0.48400
H883        H  0.36340650  0.87159609  0.57554346    -0.00600
C884        C  0.36707029  0.86787714  0.45695799     0.48500
H885        H  0.36842542  0.86679310  0.42148546    -0.00600
C886        C  0.34118730  0.84576283  0.52018879    -0.14300
C887        C  0.35551365  0.90300027  0.51815343    -0.14000
C888        C  0.39734546  0.85909721  0.52341657    -0.14400
C889        C  0.34218849  0.84413567  0.47660688    -0.14400
C890        C  0.35706457  0.90190119  0.47433259    -0.14000
C891        C  0.39892836  0.85807817  0.47927313    -0.14300
C892        C  0.05864582  0.82171160  0.43935361    -0.10300
C893        C  0.07500338  0.84165707  0.45828486    -0.11900
C894        C  0.06536735  0.81226009  0.56194995    -0.10300
C895        C  0.08118201  0.83447270  0.54758097    -0.11900
C896        C  0.08014813  0.66564795  0.54945426    -0.10300
C897        C  0.06314211  0.68134555  0.57371563    -0.11900
C898        C  0.08804068  0.67128266  0.45234438    -0.10300
C899        C  0.07753027  0.68993597  0.42542281    -0.10400
C900        C  0.42239320  0.69417668  0.41334395    -0.10300
C901        C  0.41325847  0.67371039  0.43890711    -0.11900
C902        C  0.43717095  0.69307782  0.55507417    -0.10300
C903        C  0.42083546  0.67473676  0.53328725    -0.11900
C904        C  0.41783811  0.84035191  0.55283823    -0.10300
C905        C  0.43007695  0.82311912  0.58042680    -0.11900
C906        C  0.42364177  0.84084286  0.45487644    -0.10300
C907        C  0.44074093  0.82449889  0.43160956    -0.11900
C908        C  0.34315016  0.58407226  0.54974888    -0.10300
C909        C  0.32696203  0.56979791  0.57666514    -0.11900
C910        C  0.33720492  0.58087957  0.45301645    -0.10300
C911        C  0.31732577  0.57243666  0.42679087    -0.11900
C912        C  0.18740495  0.56306503  0.44328584    -0.10300
C913        C  0.16682491  0.57998824  0.45939272    -0.11900
C914        C  0.19110978  0.56936881  0.56210578    -0.10300
C915        C  0.16780734  0.58272815  0.54759826    -0.11900
C916        C  0.33689795  0.92351535  0.44868895    -0.10300
C917        C  0.31649176  0.93994088  0.43126250    -0.11900
C918        C  0.33218959  0.92377805  0.53939930    -0.10300
C919        C  0.31064125  0.93682520  0.55862113    -0.11900
C920        C  0.16257222  0.92132310  0.55458118    -0.10300
C921        C  0.17830959  0.93548786  0.58178870    -0.11900
C922        C  0.18088755  0.93688985  0.42967111    -0.10300
C923        C  0.16332874  0.92376091  0.45570912    -0.11900
C924        C  0.19877822  0.82286648  0.56656440    -0.13500
C925        C  0.17596286  0.81460887  0.53846029    -0.28600
H926        H  0.20165252  0.84863942  0.57558147     0.15600
H927        H  0.17262640  0.78903962  0.52887568     0.16100
C928        C  0.17259843  0.82623796  0.44296991    -0.13500
C929        C  0.20346554  0.81882852  0.44946658    -0.28600
H930        H  0.16079995  0.81989375  0.41289024     0.15600
H931        H  0.21644251  0.82529997  0.47845066     0.16100
C932        C  0.33498713  0.80631009  0.57698135    -0.13500
C933        C  0.32119296  0.82411206  0.54626571    -0.28600
H934        H  0.36047168  0.80881587  0.58368768     0.15600
H935        H  0.29622388  0.82022468  0.53728599     0.16100
C936        C  0.32372472  0.81899063  0.45280839    -0.13500
C937        C  0.31537685  0.82214163  0.41178803    -0.28600
H938        H  0.31662028  0.79687238  0.47004500     0.15600
H939        H  0.32166241  0.84415553  0.39381488     0.16100
C940        C  0.30570794  0.67744022  0.56263501    -0.13500
C941        C  0.31788218  0.68265381  0.52422274    -0.28600
H942        H  0.31272418  0.65623635  0.58177292     0.15600
H943        H  0.31119280  0.70447735  0.50593340     0.16100
C944        C  0.33039205  0.68107667  0.39627551    -0.13500
C945        C  0.31959762  0.66825670  0.43248666    -0.28600
H946        H  0.35559096  0.67985732  0.38786027     0.15600
H947        H  0.29512172  0.67276799  0.44286169     0.16100
C948        C  0.17203779  0.69380762  0.59106489    -0.13500
C949        C  0.18228696  0.68015454  0.55438810    -0.28600
H950        H  0.14702839  0.69210053  0.60036881     0.15600
H951        H  0.20653096  0.68506644  0.54340494     0.16100
C952        C  0.18229964  0.68174365  0.45670964    -0.13500
C953        C  0.16999214  0.69692204  0.42205389    -0.28600
H954        H  0.20716765  0.68574542  0.46605401     0.15600
H955        H  0.14458876  0.69572960  0.41468103     0.16100
O956        O  0.21874421  0.70529472  0.72587659    -0.77200
O957        O  0.26029906  0.71773226  0.88981057    -0.77200
O958        O  0.17824951  0.74102751  0.96222712    -0.77200
O959        O  0.32111566  0.73033230  0.69643851    -0.77100
O960        O  0.21571444  0.70376008  0.95029945    -0.77300
O961        O  0.28178907  0.69831902  0.71192494    -0.77200
O962        O  0.28491551  0.69987155  0.94900885    -0.77200
O963        O  0.18401844  0.74582408  0.71578198    -0.77200
C964        C  0.19079162  0.71687522  0.72891038     1.12500
C965        C  0.27719095  0.69627628  0.90929622     1.12400
C966        C  0.18676319  0.71282677  0.94801089     1.12500
C967        C  0.31139765  0.70361246  0.71203222     1.12400
O968        O  0.29156931  0.76671547  0.74654079    -0.77200
O969        O  0.21596820  0.76723717  0.91004539    -0.77200
O970        O  0.22451325  0.80505165  0.71219987    -0.77200
O971        O  0.32079324  0.75478037  0.94488358    -0.77200
O972        O  0.27668503  0.77738925  0.92633700    -0.77200
O973        O  0.22922215  0.76845242  0.76353727    -0.77200
O974        O  0.29624163  0.79472727  0.68594018    -0.77100
O975        O  0.21710895  0.80282536  0.96174927    -0.77200
Co976      Co  0.25531602  0.73457225  0.73364760     1.51500
Co977      Co  0.24763099  0.73854688  0.94136946     1.51700
Co978      Co  0.20126143  0.77167884  0.00415302     1.51600
Co979      Co  0.29307183  0.75364601  0.65409186     1.51500
O980        O  0.24806930  0.75102495  0.67374676    -1.39100
C981        C  0.29932704  0.79292177  0.72600377     1.12500
C982        C  0.21131024  0.79629845  0.92353455     1.12500
C983        C  0.22343757  0.79747217  0.75087595     1.12500
C984        C  0.30700008  0.77642303  0.92430265     1.12500
O985        O  0.25646171  0.96599793  0.76152557    -0.77200
O986        O  0.29854926  0.51865361  0.95737332    -0.77200
O987        O  0.27583801  0.95507119  0.96094438    -0.77200
O988        O  0.28347317  0.56740015  0.71327253    -0.77100
O989        O  0.27191060  0.97993567  0.89797390    -0.77300
O990        O  0.30317298  0.51804854  0.71357684    -0.77200
O991        O  0.28012609  0.56838013  0.96146761    -0.77200
O992        O  0.29061327  0.94743538  0.71377961    -0.77200
C993        C  0.28317466  0.95292517  0.75203164     1.12500
C994        C  0.30111709  0.54857223  0.94774881     1.12400
C995        C  0.28532307  0.95873036  0.92198445     1.12500
C996        C  0.30517227  0.54751393  0.72497357     1.12400
O997        O  0.24265128  0.53505461  0.76016506    -0.77200
O998        O  0.21168380  0.97589569  0.93191837    -0.77200
O999        O  0.22297720  0.93253339  0.71244195    -0.77200
O1000       O  0.21130347  0.56213350  0.96238975    -0.77200
O1001       O  0.23980215  0.54064864  0.91079412    -0.77200
O1002       O  0.19755547  0.97900466  0.70919767    -0.77200
O1003       O  0.21456438  0.55817000  0.70908586    -0.77100
O1004       O  0.21580119  0.92712675  0.96339114    -0.77200
Co1005     Co  0.26022402  0.49828084  0.72196464     1.51500
Co1006     Co  0.25521626  0.50097462  0.94444794     1.51700
Co1007     Co  0.25800067  0.94300697  0.66937378     1.51600
Co1008     Co  0.24902021  0.56095785  0.66784180     1.51500
O1009       O  0.24730775  0.50917903  0.66386149    -1.39100
C1010       C  0.21871232  0.55236234  0.74790570     1.12500
C1011       C  0.20403654  0.94511829  0.93384946     1.12500
C1012       C  0.19830496  0.94938703  0.72112956     1.12500
C1013       C  0.21574018  0.55712280  0.92347772     1.12500
O1014       O  0.41993247  0.77042486  0.71139121    -0.77200
O1015       O  0.07154068  0.76169582  0.95183552    -0.77200
O1016       O  0.01598278  0.78646931  0.73715551    -0.77200
O1017       O  0.46129596  0.76628757  0.90129167    -0.77100
O1018       O  0.06102313  0.77736130  0.70663224    -0.77300
O1019       O  0.45055192  0.80121490  0.95332764    -0.77200
O1020       O  0.03213693  0.79607029  0.94316930    -0.77200
O1021       O  0.46069475  0.80326885  0.72331094    -0.77200
C1022       C  0.43140498  0.79736823  0.72559364     1.12500
C1023       C  0.06060237  0.78861104  0.93674967     1.12400
C1024       C  0.04539944  0.79304567  0.73389452     1.12500
C1025       C  0.45012692  0.79378997  0.91425748     1.12400
O1026       O  0.42232290  0.73630414  0.95502714    -0.77200
O1027       O  0.04768593  0.71184008  0.70832978    -0.77200
O1028       O  0.45754322  0.73785432  0.76435282    -0.77200
O1029       O  0.03161916  0.72946095  0.90412213    -0.77200
O1030       O  0.04385601  0.69631284  0.95790489    -0.77200
O1031       O  0.44454151  0.70404729  0.71147150    -0.77200
O1032       O  0.46125705  0.70146616  0.94286538    -0.77100
O1033       O  0.02301876  0.72320758  0.77019092    -0.77200
Co1034     Co  0.43928786  0.73891388  0.66813831     1.51500
Co1035     Co  0.05216426  0.73192674  0.99836965     1.51700
Co1036     Co  0.49078980  0.76845393  0.73769930     1.51600
Co1037     Co  0.49339579  0.73460110  0.92895253     1.51500
O1038       O  0.48666960  0.75150641  0.67692844    -1.39100
C1039       C  0.43224062  0.70887104  0.94090086     1.12500
C1040       C  0.04342633  0.70657711  0.74867965     1.12500
C1041       C  0.44629140  0.71039336  0.75095108     1.12500
C1042       C  0.04247183  0.70210402  0.91846256     1.12500
C1043       C  0.13125032  0.63285424  0.87378955     0.48400
H1044       H  0.12962969  0.63211037  0.90928559    -0.00600
C1045       C  0.13480391  0.63328478  0.79066349     0.48500
H1046       H  0.13629635  0.63331885  0.75512892    -0.00600
C1047       C  0.15342941  0.65999731  0.85648676    -0.14300
C1048       C  0.14546219  0.60111951  0.85468088    -0.14000
C1049       C  0.09895408  0.63938672  0.85144737    -0.14400
C1050       C  0.15510193  0.66023091  0.81250597    -0.14400
C1051       C  0.14748896  0.60120264  0.81105389    -0.14000
C1052       C  0.10081031  0.63953852  0.80771458    -0.14300
C1053       C  0.36993895  0.62490921  0.79156727     0.48400
H1054       H  0.37771826  0.62215634  0.75775079    -0.00600
C1055       C  0.35212266  0.63153350  0.87053282     0.48500
H1056       H  0.34517270  0.63479315  0.90453474    -0.00600
C1057       C  0.33922819  0.64480393  0.79641144    -0.14300
C1058       C  0.36115665  0.59186813  0.81355243    -0.14000
C1059       C  0.39445994  0.64355469  0.81974367    -0.14400
C1060       C  0.32953211  0.64822321  0.83779125    -0.14400
C1061       C  0.35312792  0.59554426  0.85633275    -0.14000
C1062       C  0.38492037  0.64639169  0.86140776    -0.14300
C1063       C  0.13019720  0.86725501  0.78579397     0.48400
H1064       H  0.12718379  0.86837450  0.75039813    -0.00600
C1065       C  0.13763201  0.86373221  0.86819456     0.48500
H1066       H  0.14083023  0.86211229  0.90354463    -0.00600
C1067       C  0.15693661  0.84403610  0.80010670    -0.14300
C1068       C  0.14056391  0.90022828  0.80584081    -0.14000
C1069       C  0.10038144  0.85395652  0.80936893    -0.14400
C1070       C  0.16018560  0.84135625  0.84341148    -0.14400
C1071       C  0.14418088  0.89827406  0.84983095    -0.14000
C1072       C  0.10468037  0.85193297  0.85312286    -0.14300
C1073       C  0.36119939  0.86757556  0.87625381     0.48400
H1074       H  0.36446889  0.86419784  0.91134421    -0.00600
C1075       C  0.35356833  0.87464375  0.79421091     0.48500
H1076       H  0.35097821  0.87891091  0.75927744    -0.00600
C1077       C  0.33290987  0.84786732  0.85735015    -0.14300
C1078       C  0.35290082  0.90304466  0.86325746    -0.14000
C1079       C  0.39038753  0.85628707  0.84956089    -0.14400
C1080       C  0.32936972  0.85047805  0.81400392    -0.14400
C1081       C  0.34936361  0.90656572  0.81986569    -0.14000
C1082       C  0.38584445  0.85989609  0.80633084    -0.14300
C1083       C  0.06109672  0.81674558  0.76190299    -0.10300
C1084       C  0.07696841  0.83443432  0.78529637    -0.11900
C1085       C  0.07811813  0.80921903  0.90722293    -0.10300
C1086       C  0.08841363  0.82845609  0.88086450    -0.11900
C1087       C  0.07461576  0.65872135  0.87318877    -0.10300
C1088       C  0.05740262  0.67834356  0.89087979    -0.11900
C1089       C  0.07847909  0.65940294  0.78321718    -0.10300
C1090       C  0.06133825  0.68032418  0.76806524    -0.10400
C1091       C  0.43258167  0.68667346  0.78039375    -0.10300
C1092       C  0.41740756  0.66625468  0.80033989    -0.11900
C1093       C  0.41180379  0.68729968  0.91698491    -0.10300
C1094       C  0.39939991  0.66847432  0.89211373    -0.11900
C1095       C  0.41504621  0.83487901  0.86779157    -0.10300
C1096       C  0.43316517  0.81586498  0.88564897    -0.11900
C1097       C  0.40140147  0.83913632  0.77521861    -0.10300
C1098       C  0.41268539  0.81998290  0.75002227    -0.11900
C1099       C  0.33798157  0.57155155  0.88486262    -0.10300
C1100       C  0.32320064  0.55910766  0.91436280    -0.11900
C1101       C  0.34519968  0.56827162  0.78559045    -0.10300
C1102       C  0.32867988  0.55709645  0.75693454    -0.11900
C1103       C  0.19495618  0.56636987  0.77586692    -0.10300
C1104       C  0.17236403  0.58149148  0.79029693    -0.11900
C1105       C  0.19180035  0.56972959  0.89532143    -0.10300
C1106       C  0.16907697  0.58276135  0.87869143    -0.11900
C1107       C  0.32719678  0.93011183  0.80241215    -0.10300
C1108       C  0.30570843  0.94348024  0.78382049    -0.11900
C1109       C  0.33324625  0.92330993  0.89121344    -0.10300
C1110       C  0.31224003  0.93982855  0.90690147    -0.11900
C1111       C  0.16393290  0.91995823  0.87600039    -0.10300
C1112       C  0.18165075  0.93202814  0.90265063    -0.11900
C1113       C  0.17470755  0.93654895  0.75117390    -0.10300
C1114       C  0.15809523  0.92318150  0.77816252    -0.11900
C1115       C  0.19685465  0.82216103  0.89788606    -0.13500
C1116       C  0.17856314  0.81511730  0.86435364    -0.28600
H1117       H  0.19826185  0.84739217  0.90969029     0.15600
H1118       H  0.17703863  0.79010425  0.85189211     0.16100
C1119       C  0.17732498  0.82718802  0.76962574    -0.13500
C1120       C  0.20794689  0.82014630  0.77876942    -0.28600
H1121       H  0.16657207  0.81971351  0.73929468     0.15600
H1122       H  0.21999243  0.82781788  0.80799473     0.16100
C1123       C  0.32619832  0.80100833  0.90267263    -0.13500
C1124       C  0.31275959  0.82633834  0.88298676    -0.28600
H1125       H  0.35213794  0.79795793  0.90237315     0.15600
H1126       H  0.28684148  0.82889003  0.88114150     0.16100
C1127       C  0.30955483  0.82661033  0.78931242    -0.13500
C1128       C  0.31448517  0.82076606  0.74784213    -0.28600
H1129       H  0.29273670  0.81090118  0.80634366     0.15600
H1130       H  0.33055896  0.83590810  0.72906923     0.16100
C1131       C  0.28909910  0.66708791  0.88792079    -0.13500
C1132       C  0.30305575  0.67017398  0.85002349    -0.28600
H1133       H  0.29339047  0.64542358  0.90757858     0.15600
H1134       H  0.29877757  0.69208606  0.83071290     0.16100
C1135       C  0.33317359  0.68131630  0.73489858    -0.13500
C1136       C  0.32078209  0.65811310  0.76041421    -0.28600
H1137       H  0.35858580  0.68731294  0.73655908     0.15600
H1138       H  0.29502870  0.65383364  0.76099073     0.16100
C1139       C  0.16419668  0.69264319  0.92264200    -0.13500
C1140       C  0.17381816  0.68082786  0.88458459    -0.28600
H1141       H  0.13955569  0.68964745  0.93309102     0.15600
H1142       H  0.19768534  0.68705657  0.87333780     0.16100
C1143       C  0.17669716  0.68166944  0.78806818    -0.13500
C1144       C  0.16712549  0.69753212  0.75257018    -0.28600
H1145       H  0.20121045  0.68449319  0.79956076     0.15600
H1146       H  0.14212961  0.69738300  0.74250076     0.16100
O1147       O  0.71323984  0.23936705  0.09288591    -0.77200
O1148       O  0.77568337  0.23173967  0.24487786    -0.77200
O1149       O  0.68781853  0.23829373  0.30580870    -0.77200
O1150       O  0.80058072  0.20783030  0.01657623    -0.77100
O1151       O  0.73196178  0.20845076  0.30219994    -0.77300
O1152       O  0.77175678  0.21981231  0.07303735    -0.77200
O1153       O  0.80267595  0.22863173  0.30613965    -0.77200
O1154       O  0.69865385  0.19914474  0.04965560    -0.77200
C1155       C  0.70298041  0.21028331  0.08680437     1.12500
C1156       C  0.79832422  0.21956052  0.26705792     1.12400
C1157       C  0.70201943  0.21109282  0.29755865     1.12500
C1158       C  0.79242444  0.20208356  0.05435971     1.12400
O1159       O  0.76406774  0.28300851  0.09898175    -0.77200
O1160       O  0.72345578  0.27101871  0.25775844    -0.77200
O1161       O  0.67514569  0.26538440  0.03601604    -0.77200
O1162       O  0.82855934  0.28860401  0.31799914    -0.77200
O1163       O  0.78309107  0.29201513  0.28076746    -0.77200
O1164       O  0.71882468  0.29646455  0.03902271    -0.77200
O1165       O  0.79378198  0.27657846  0.04057817    -0.77100
O1166       O  0.71412481  0.30668283  0.30756960    -0.77200
Co1167     Co  0.74601775  0.25882482  0.05371904     1.51500
Co1168     Co  0.75728471  0.24888710  0.29492562     1.51700
Co1169     Co  0.70064620  0.27331855  0.34921956     1.51600
Co1170     Co  0.78306111  0.24596822  0.98776197     1.51500
O1171       O  0.73605433  0.23875908  0.00060379    -1.39100
C1172       C  0.78914271  0.28971226  0.07777299     1.12500
C1173       C  0.71314121  0.29911198  0.26878575     1.12500
C1174       C  0.68897849  0.29269667  0.04408588     1.12500
C1175       C  0.81258466  0.30078419  0.28759812     1.12500
O1176       O  0.76664703  0.48047970  0.10326655    -0.77200
O1177       O  0.79639688  0.02082066  0.28770341    -0.77200
O1178       O  0.78906265  0.44372595  0.29748197    -0.77200
O1179       O  0.76931095  0.07198545  0.04160403    -0.77100
O1180       O  0.75832434  0.46443701  0.24673129    -0.77300
O1181       O  0.79300008  0.02464838  0.04652926    -0.77200
O1182       O  0.76969780  0.06719813  0.29576447    -0.77200
O1183       O  0.78473848  0.46106001  0.04099285    -0.77200
C1184       C  0.78619947  0.46259391  0.08221835     1.12500
C1185       C  0.79355837  0.05132304  0.28033143     1.12400
C1186       C  0.78393412  0.44994994  0.25848728     1.12500
C1187       C  0.79234345  0.05466666  0.05625826     1.12400
O1188       O  0.73258422  0.04067108  0.09044181    -0.77200
O1189       O  0.69796938  0.47858225  0.29125905    -0.77200
O1190       O  0.71800104  0.44099765  0.04575956    -0.77200
O1191       O  0.70247889  0.04180727  0.30023998    -0.77200
O1192       O  0.73465691  0.02966871  0.24894472    -0.77200
O1193       O  0.70459474  0.48757856  0.07133536    -0.77200
O1194       O  0.70100559  0.05763634  0.03848929    -0.77100
O1195       O  0.72126617  0.43087399  0.29712353    -0.77200
Co1196     Co  0.75125020  0.00253177  0.05682490     1.51500
Co1197     Co  0.75625938  0.99485471  0.28515294     1.51700
Co1198     Co  0.74706747  0.45797251  0.99887808     1.51600
Co1199     Co  0.73537436  0.06004527  0.99578867     1.51500
O1200       O  0.73701067  0.00803353  0.99720679    -1.39100
C1201       C  0.70792773  0.05644421  0.07772715     1.12500
C1202       C  0.69826818  0.44811952  0.28298470     1.12500
C1203       C  0.70045848  0.45738837  0.07028809     1.12500
C1204       C  0.70882010  0.04236928  0.26147063     1.12500
O1205       O  0.94524612  0.28617489  0.04293487    -0.77200
O1206       O  0.56219198  0.28921188  0.29887517    -0.77200
O1207       O  0.52113743  0.29666647  0.05613339    -0.77200
O1208       O  0.96565642  0.29042137  0.26974678    -0.77100
O1209       O  0.56864647  0.27513032  0.05001076    -0.77300
O1210       O  0.91904601  0.28499529  0.30319065    -0.77200
O1211       O  0.53752671  0.26217215  0.24629746    -0.77200
O1212       O  0.97018539  0.27853005  0.10459876    -0.77200
C1213       C  0.94858981  0.29305509  0.08324067     1.12500
C1214       C  0.55555860  0.28572385  0.25941226     1.12400
C1215       C  0.55089763  0.29813815  0.06290708     1.12500
C1216       C  0.93578110  0.29807922  0.27361461     1.12400
O1217       O  0.94597718  0.22405363  0.29343579    -0.77200
O1218       O  0.56250951  0.20591395  0.04513456    -0.77200
O1219       O  0.96551505  0.21779639  0.06735253    -0.77200
O1220       O  0.51904433  0.19908576  0.28546161    -0.77200
O1221       O  0.56763404  0.21897337  0.29470679    -0.77200
O1222       O  0.91822907  0.22465759  0.03625734    -0.77200
O1223       O  0.97132477  0.22975006  0.23214205    -0.77100
O1224       O  0.53640804  0.23286239  0.09657905    -0.77200
Co1225     Co  0.95524060  0.24269426  0.00832410     1.51500
Co1226     Co  0.56114479  0.25251715  0.34097277     1.51700
Co1227     Co  0.98984967  0.26163607  0.05405578     1.51600
Co1228     Co  0.99138247  0.24746264  0.28253346     1.51500
O1229       O  0.00186296  0.25196675  0.99262052    -1.39100
C1230       C  0.94936573  0.21594717  0.25344652     1.12500
C1231       C  0.55442123  0.20923460  0.08420655     1.12500
C1232       C  0.93539382  0.21065282  0.06470225     1.12500
C1233       C  0.54888893  0.19665506  0.28098574     1.12500
C1234       C  0.63477517  0.13377748  0.22575917     0.48400
H1235       H  0.63371444  0.12896308  0.26077712    -0.00600
C1236       C  0.63771828  0.14473612  0.14378001     0.48500
H1237       H  0.63922288  0.14949236  0.10875872    -0.00600
C1238       C  0.65363386  0.16517947  0.21425116    -0.14300
C1239       C  0.65057617  0.10591153  0.19985204    -0.14000
C1240       C  0.60184616  0.14003417  0.20473552    -0.14400
C1241       C  0.65572395  0.17030970  0.17125815    -0.14400
C1242       C  0.65186805  0.11161243  0.15710134    -0.14000
C1243       C  0.60349067  0.14623547  0.16135488    -0.14300
C1244       C  0.85822003  0.13399504  0.12737653     0.48400
H1245       H  0.85908847  0.13290205  0.09193632    -0.00600
C1246       C  0.85867040  0.13608051  0.21035994     0.48500
H1247       H  0.85876150  0.13692641  0.24592999    -0.00600
C1248       C  0.83327069  0.15759211  0.14587855    -0.14300
C1249       C  0.84903005  0.10080488  0.14757481    -0.14000
C1250       C  0.89006983  0.14654743  0.14633104    -0.14400
C1251       C  0.83344674  0.15850794  0.18964071    -0.14400
C1252       C  0.84927809  0.10174169  0.19220928    -0.14000
C1253       C  0.89056872  0.14803625  0.19036269    -0.14300
C1254       C  0.63598695  0.36950230  0.12315932     0.48400
H1255       H  0.63472800  0.37371677  0.08801125    -0.00600
C1256       C  0.63890117  0.36023028  0.20530277     0.48500
H1257       H  0.63968386  0.35605023  0.24045672    -0.00600
C1258       C  0.66145178  0.34420566  0.13670075    -0.14300
C1259       C  0.64539013  0.40068800  0.14839011    -0.14000
C1260       C  0.60462598  0.35598581  0.14188120    -0.14400
C1261       C  0.66336553  0.33942511  0.18008220    -0.14400
C1262       C  0.64658987  0.39610439  0.19223265    -0.14000
C1263       C  0.60623006  0.35069379  0.18523006    -0.14300
C1264       C  0.86147342  0.37736188  0.20950589     0.48400
H1265       H  0.86330167  0.38095212  0.24472038    -0.00600
C1266       C  0.85840821  0.37094009  0.12697510     0.48500
H1267       H  0.85719025  0.36848502  0.09156875    -0.00600
C1268       C  0.83440214  0.35444350  0.19447855    -0.14300
C1269       C  0.85377627  0.40958210  0.18659551    -0.14000
C1270       C  0.89158205  0.36192514  0.19044047    -0.14400
C1271       C  0.83245770  0.35102134  0.15093196    -0.14400
C1272       C  0.85293601  0.40658979  0.14287413    -0.14000
C1273       C  0.89030020  0.35865840  0.14668675    -0.14300
C1274       C  0.56493154  0.32361037  0.08960868    -0.10300
C1275       C  0.58092786  0.34038174  0.11387864    -0.11900
C1276       C  0.56983507  0.30867351  0.22939515    -0.10300
C1277       C  0.58456503  0.32852640  0.20795222    -0.11900
C1278       C  0.57707840  0.15377208  0.23129712    -0.10300
C1279       C  0.56180380  0.17071351  0.25530899    -0.11900
C1280       C  0.58060677  0.16661487  0.13821793    -0.10300
C1281       C  0.56687936  0.18605411  0.11514844    -0.10400
C1282       C  0.92192646  0.18646458  0.09372002    -0.10300
C1283       C  0.90983002  0.16746302  0.11902793    -0.11900
C1284       C  0.92923962  0.19042084  0.23330892    -0.10300
C1285       C  0.91239137  0.17024356  0.21438385    -0.11900
C1286       C  0.91079216  0.34089301  0.21829310    -0.10300
C1287       C  0.92226739  0.32198921  0.24427027    -0.11900
C1288       C  0.91181373  0.33717944  0.12270701    -0.10300
C1289       C  0.92874839  0.31779041  0.10367280    -0.11900
C1290       C  0.83086270  0.07994875  0.22080905    -0.10300
C1291       C  0.81481913  0.06681171  0.24883566    -0.11900
C1292       C  0.82986040  0.07886763  0.11962771    -0.10300
C1293       C  0.81371943  0.06729428  0.09021179    -0.11900
C1294       C  0.68809149  0.07446964  0.10691357    -0.10300
C1295       C  0.67082567  0.09137907  0.12861931    -0.11900
C1296       C  0.68772737  0.06048948  0.23431867    -0.10300
C1297       C  0.66925102  0.07997416  0.21907229    -0.11900
C1298       C  0.83258222  0.42853952  0.11844696    -0.10300
C1299       C  0.81194355  0.44558011  0.10298838    -0.11900
C1300       C  0.83067865  0.43051682  0.20821429    -0.10300
C1301       C  0.80845712  0.44134301  0.22839394    -0.11900
C1302       C  0.66156183  0.41868992  0.22348424    -0.10300
C1303       C  0.67607802  0.43359225  0.25167412    -0.11900
C1304       C  0.67842835  0.44172120  0.09965539    -0.10300
C1305       C  0.66227698  0.42633209  0.12497728    -0.11900
C1306       C  0.69802269  0.32297184  0.23955312    -0.13500
C1307       C  0.68536583  0.31553620  0.20130336    -0.28600
H1308       H  0.69398743  0.34744970  0.25266665     0.15600
H1309       H  0.68958743  0.29158735  0.18680225     0.16100
C1310       C  0.68207967  0.32705767  0.10585653    -0.13500
C1311       C  0.67106225  0.31765432  0.06734257    -0.28600
H1312       H  0.70541435  0.31850660  0.11687975     0.15600
H1313       H  0.64641644  0.32249797  0.05787707     0.16100
C1314       C  0.82820716  0.32487741  0.26081751    -0.13500
C1315       C  0.81477432  0.33567619  0.22473107    -0.28600
H1316       H  0.85286142  0.33090132  0.26898809     0.15600
H1317       H  0.79076159  0.32773957  0.21587759     0.16100
C1318       C  0.80774151  0.33025395  0.13009897    -0.13500
C1319       C  0.81352761  0.31244567  0.09504753    -0.28600
H1320       H  0.78450736  0.32817875  0.14534372     0.15600
H1321       H  0.83662858  0.31400546  0.07925934     0.16100
C1322       C  0.81945491  0.19469329  0.24902527    -0.13500
C1323       C  0.81062709  0.17843452  0.21391354    -0.28600
H1324       H  0.84301707  0.19115891  0.26331832     0.15600
H1325       H  0.78682304  0.18221532  0.20043213     0.16100
C1326       C  0.80858633  0.17597258  0.07783889    -0.13500
C1327       C  0.81282128  0.17944146  0.11994230    -0.28600
H1328       H  0.81916942  0.15593362  0.05994062     0.15600
H1329       H  0.80243947  0.20076591  0.13564681     0.16100
C1330       C  0.68477654  0.18376146  0.27677081    -0.13500
C1331       C  0.66401097  0.19043371  0.24532457    -0.28600
H1332       H  0.69337606  0.15868709  0.28120366     0.15600
H1333       H  0.65843078  0.21600435  0.23783410     0.16100
C1334       C  0.67422728  0.19701898  0.15153967    -0.13500
C1335       C  0.69525363  0.18839713  0.12181193    -0.28600
H1336       H  0.66730140  0.22257460  0.15636845     0.15600
H1337       H  0.70043551  0.16236569  0.11688314     0.16100
O1338       O  0.72110708  0.20711617  0.40424169    -0.77200
O1339       O  0.78338895  0.20836754  0.61619936    -0.77200
O1340       O  0.68032193  0.23653391  0.63372725    -0.77200
O1341       O  0.81957033  0.25036161  0.38319382    -0.77100
O1342       O  0.71957612  0.20334871  0.62157274    -0.77300
O1343       O  0.78459862  0.21182574  0.39307761    -0.77200
O1344       O  0.81917317  0.24681209  0.63224678    -0.77200
O1345       O  0.68125002  0.24153709  0.39174135    -0.77200
C1346       C  0.69164871  0.21402871  0.40559956     1.12500
C1347       C  0.81193328  0.21886366  0.61649651     1.12400
C1348       C  0.69041565  0.20995159  0.61838012     1.12500
C1349       C  0.81266424  0.22225884  0.39709244     1.12400
O1350       O  0.78386726  0.27848790  0.43273119    -0.77200
O1351       O  0.71318117  0.27148346  0.58677249    -0.77200
O1352       O  0.70992189  0.30654259  0.39222615    -0.77200
O1353       O  0.78382785  0.30779442  0.63136675    -0.77200
O1354       O  0.77730692  0.27219089  0.57860749    -0.77200
O1355       O  0.72091083  0.27066957  0.44346359    -0.77200
O1356       O  0.78486934  0.31045625  0.37536411    -0.77100
O1357       O  0.70725105  0.30047009  0.64622888    -0.77200
Co1358     Co  0.75263177  0.24196495  0.41505920     1.51500
Co1359     Co  0.74830464  0.23877773  0.60414019     1.51700
Co1360     Co  0.70562934  0.25942319  0.67899787     1.51600
Co1361     Co  0.79079812  0.27102493  0.34022019     1.51500
O1362       O  0.74616014  0.25876856  0.35526661    -1.39100
C1363       C  0.79029178  0.30617557  0.41476808     1.12500
C1364       C  0.70346492  0.29741905  0.60632852     1.12500
C1365       C  0.71097837  0.29852364  0.43108600     1.12500
C1366       C  0.78426095  0.30069854  0.59219470     1.12500
O1367       O  0.76155310  0.46409812  0.43539941    -0.77200
O1368       O  0.78825081  0.03322856  0.60093382    -0.77200
O1369       O  0.79581419  0.46362345  0.64421810    -0.77200
O1370       O  0.76594750  0.07527872  0.38609979    -0.77100
O1371       O  0.76973570  0.47244446  0.58346926    -0.77300
O1372       O  0.79729072  0.03336172  0.39826801    -0.77200
O1373       O  0.77862870  0.08129277  0.63197504    -0.77200
O1374       O  0.79056994  0.44399491  0.38326222    -0.77200
C1375       C  0.78639330  0.44893001  0.42251543     1.12500
C1376       C  0.79378105  0.06451780  0.60422880     1.12400
C1377       C  0.79459555  0.46230026  0.60366212     1.12500
C1378       C  0.79117455  0.06314944  0.40297286     1.12400
O1379       O  0.73236376  0.03445728  0.43631489    -0.77200
O1380       O  0.70220786  0.47577952  0.61633978    -0.77200
O1381       O  0.72181480  0.43226191  0.38766294    -0.77200
O1382       O  0.72037429  0.04898149  0.62523863    -0.77200
O1383       O  0.72923887  0.02584477  0.56221168    -0.77200
O1384       O  0.69967280  0.48067495  0.39411660    -0.77200
O1385       O  0.70140781  0.04848332  0.38205027    -0.77100
O1386       O  0.73337522  0.43519381  0.63051607    -0.77200
Co1387     Co  0.76354348  0.00146923  0.40906822     1.51500
Co1388     Co  0.74686569  0.00567909  0.61230447     1.51700
Co1389     Co  0.75539113  0.44156605  0.34143914     1.51600
Co1390     Co  0.73565897  0.05512393  0.34102441     1.51500
O1391       O  0.74823740  0.00654449  0.34746837    -1.39100
C1392       C  0.70620080  0.04637754  0.42147679     1.12500
C1393       C  0.70815649  0.44593566  0.61252101     1.12500
C1394       C  0.69952871  0.45025716  0.40262319     1.12500
C1395       C  0.71283696  0.04497960  0.58547000     1.12500
O1396       O  0.95834900  0.30690664  0.36900672    -0.77200
O1397       O  0.53230186  0.30118909  0.64147324    -0.77200
O1398       O  0.51372951  0.30001791  0.40087931    -0.77200
O1399       O  0.98081099  0.30474387  0.62334793    -0.77100
O1400       O  0.56393932  0.28612797  0.38860128    -0.77300
O1401       O  0.93602818  0.27561606  0.62773098    -0.77200
O1402       O  0.52579403  0.27349431  0.58119170    -0.77200
O1403       O  0.96723391  0.27545883  0.42553332    -0.77200
C1404       C  0.95655950  0.30225548  0.40935346     1.12500
C1405       C  0.53527893  0.29921725  0.60113995     1.12400
C1406       C  0.54347791  0.30483056  0.40623359     1.12500
C1407       C  0.95125939  0.30150579  0.61550040     1.12400
O1408       O  0.96072720  0.20674197  0.62616188    -0.77200
O1409       O  0.56268745  0.21531345  0.38211690    -0.77200
O1410       O  0.97084169  0.20890780  0.38517393    -0.77200
O1411       O  0.52331807  0.20418949  0.61226834    -0.77200
O1412       O  0.56166418  0.23747985  0.63029218    -0.77200
O1413       O  0.93101624  0.24211613  0.37524405    -0.77200
O1414       O  0.97312068  0.24312699  0.57838870    -0.77100
O1415       O  0.53231293  0.23613856  0.43331812    -0.77200
Co1416     Co  0.95650878  0.26720460  0.33022683     1.51500
Co1417     Co  0.53367992  0.25961979  0.67557246     1.51700
Co1418     Co  0.00085686  0.24228108  0.40514164     1.51600
Co1419     Co  0.00633542  0.26446742  0.61787512     1.51500
O1420       O  0.00395595  0.25846550  0.34362894    -1.39100
C1421       C  0.96077551  0.21546211  0.58778721     1.12500
C1422       C  0.55294882  0.21530914  0.42040288     1.12500
C1423       C  0.94207977  0.21543889  0.39065146     1.12500
C1424       C  0.55244813  0.21117780  0.61173420     1.12500
C1425       C  0.63412988  0.13155956  0.55313643     0.48400
H1426       H  0.63530147  0.13061936  0.58870860    -0.00600
C1427       C  0.63116542  0.13282904  0.47018227     0.48500
H1428       H  0.62955631  0.13313685  0.43464256    -0.00600
C1429       C  0.65966942  0.15350765  0.53246185    -0.14300
C1430       C  0.63992778  0.09780874  0.53259138    -0.14000
C1431       C  0.60278993  0.14622364  0.53633158    -0.14400
C1432       C  0.65831795  0.15431820  0.48855481    -0.14400
C1433       C  0.63891392  0.09828487  0.48864747    -0.14000
C1434       C  0.60085343  0.14664743  0.49239462    -0.14300
C1435       C  0.86542924  0.14338217  0.46056196     0.48400
H1436       H  0.86226055  0.14305252  0.42511459    -0.00600
C1437       C  0.87281171  0.14374012  0.54297342     0.48500
H1438       H  0.87615221  0.14357314  0.57830936    -0.00600
C1439       C  0.84488635  0.16881212  0.48338718    -0.14300
C1440       C  0.85526335  0.11111722  0.48128665    -0.14000
C1441       C  0.89916762  0.15257690  0.47436533    -0.14400
C1442       C  0.84816581  0.16889979  0.52695816    -0.14400
C1443       C  0.85877114  0.11095329  0.52529640    -0.14000
C1444       C  0.90362766  0.15310151  0.51796125    -0.14300
C1445       C  0.62456560  0.37275127  0.46827780     0.48400
H1446       H  0.62358583  0.37466539  0.43273033    -0.00600
C1447       C  0.62753105  0.36740643  0.55098199     0.48500
H1448       H  0.62855557  0.36516183  0.58644474    -0.00600
C1449       C  0.64556840  0.34450224  0.48408701    -0.14300
C1450       C  0.64009988  0.40301683  0.48960221    -0.14000
C1451       C  0.59188766  0.36535033  0.48846872    -0.14400
C1452       C  0.64722826  0.34123029  0.52771005    -0.14400
C1453       C  0.64221898  0.39995309  0.53380290    -0.14000
C1454       C  0.59318525  0.36259768  0.53247715    -0.14300
C1455       C  0.87245564  0.37635789  0.55522337     0.48400
H1456       H  0.87420233  0.37765319  0.59076140    -0.00600
C1457       C  0.86827903  0.37303348  0.47243381     0.48500
H1458       H  0.86652136  0.37175029  0.43694496    -0.00600
C1459       C  0.84742500  0.35169524  0.53927507    -0.14300
C1460       C  0.86144351  0.40898412  0.53504765    -0.14000
C1461       C  0.90350431  0.36425399  0.53393480    -0.14400
C1462       C  0.84523496  0.34942670  0.49549361    -0.14400
C1463       C  0.85891858  0.40713592  0.49118540    -0.14000
C1464       C  0.90179681  0.36268221  0.48965956    -0.14300
C1465       C  0.55481247  0.33005093  0.43587951    -0.10300
C1466       C  0.56849932  0.34785225  0.46158764    -0.11900
C1467       C  0.55253701  0.32482559  0.57765056    -0.10300
C1468       C  0.56952124  0.34351522  0.55703663    -0.11900
C1469       C  0.58590394  0.16981890  0.56360140    -0.10300
C1470       C  0.57319173  0.18982944  0.58702397    -0.11900
C1471       C  0.58030018  0.16990781  0.46962061    -0.10300
C1472       C  0.56627288  0.19091666  0.44921602    -0.10400
C1473       C  0.92501132  0.19432590  0.41932592    -0.10300
C1474       C  0.91552512  0.17478152  0.44551402    -0.11900
C1475       C  0.94459319  0.19435180  0.55696853    -0.10300
C1476       C  0.92751673  0.17488670  0.53781637    -0.11900
C1477       C  0.92416073  0.34351982  0.56048005    -0.10300
C1478       C  0.93630025  0.32509271  0.58667613    -0.11900
C1479       C  0.92390725  0.34328529  0.46205230    -0.10300
C1480       C  0.93971968  0.32594495  0.43753118    -0.11900
C1481       C  0.83727559  0.09209550  0.55297989    -0.10300
C1482       C  0.81787449  0.07961812  0.57704765    -0.11900
C1483       C  0.83120028  0.09258208  0.45720840    -0.10300
C1484       C  0.81189509  0.08133594  0.43183630    -0.11900
C1485       C  0.68179200  0.06072712  0.44833886    -0.10300
C1486       C  0.66056779  0.07647865  0.46515105    -0.11900
C1487       C  0.68455462  0.06068001  0.56880234    -0.10300
C1488       C  0.66198813  0.07575117  0.55449510    -0.11900
C1489       C  0.83396878  0.42578405  0.46942269    -0.10300
C1490       C  0.81114511  0.43779138  0.45125458    -0.11900
C1491       C  0.84071819  0.43106125  0.56025379    -0.10300
C1492       C  0.82066049  0.44657949  0.58020760    -0.11900
C1493       C  0.66706975  0.41572544  0.56011622    -0.10300
C1494       C  0.68716454  0.42669995  0.58480834    -0.11900
C1495       C  0.67721438  0.43686632  0.43457833    -0.10300
C1496       C  0.66048729  0.42406839  0.46223490    -0.11900
C1497       C  0.68446733  0.32277119  0.58419152    -0.13500
C1498       C  0.66654565  0.31565483  0.54971567    -0.28600
H1499       H  0.68349045  0.34725273  0.59827653     0.15600
H1500       H  0.66760512  0.29116762  0.53561151     0.16100
C1501       C  0.66439534  0.32583130  0.45382393    -0.13500
C1502       C  0.69524986  0.31942753  0.46112681    -0.28600
H1503       H  0.65290747  0.31857022  0.42387760     0.15600
H1504       H  0.70775303  0.32695028  0.49011033     0.16100
C1505       C  0.79824583  0.32401904  0.56297635    -0.13500
C1506       C  0.82870532  0.33267754  0.56999723    -0.28600
H1507       H  0.78522139  0.33079064  0.53414633     0.15600
H1508       H  0.84060399  0.32572966  0.59976219     0.16100
C1509       C  0.82537949  0.32459203  0.47300998    -0.13500
C1510       C  0.80823317  0.33192597  0.43795313    -0.28600
H1511       H  0.82423180  0.29990802  0.48655912     0.15600
H1512       H  0.80937835  0.35658893  0.42434413     0.16100
C1513       C  0.83583518  0.20021826  0.59262118    -0.13500
C1514       C  0.82670804  0.18737473  0.55503014    -0.28600
H1515       H  0.86070197  0.19959595  0.60317038     0.15600
H1516       H  0.80229580  0.19120357  0.54369929     0.16100
C1517       C  0.83482051  0.20416074  0.42313270    -0.13500
C1518       C  0.82405683  0.19049766  0.45915568    -0.28600
H1519       H  0.85969170  0.20270988  0.41356577     0.15600
H1520       H  0.79969529  0.19470633  0.47003951     0.16100
C1521       C  0.66959661  0.18887368  0.59338206    -0.13500
C1522       C  0.68104763  0.17377123  0.55863717    -0.28600
H1523       H  0.64433312  0.18792593  0.60139136     0.15600
H1524       H  0.70566914  0.17762331  0.54850499     0.16100
C1525       C  0.68013243  0.17426631  0.46188792    -0.13500
C1526       C  0.66972363  0.19133237  0.42768135    -0.28600
H1527       H  0.70484958  0.17702039  0.47256948     0.15600
H1528       H  0.64442494  0.19140419  0.41913830     0.16100
O1529       O  0.72186920  0.22291125  0.77431499    -0.77200
O1530       O  0.76815803  0.25495070  0.88650367    -0.77200
O1531       O  0.69842969  0.18861239  0.96578560    -0.77200
O1532       O  0.81045153  0.24047217  0.71781666    -0.77100
O1533       O  0.72096477  0.21730797  0.91430448    -0.77300
O1534       O  0.76981137  0.20532157  0.71878946    -0.77200
O1535       O  0.78314396  0.21726367  0.93417589    -0.77200
O1536       O  0.69943614  0.21480925  0.71051976    -0.77200
C1537       C  0.70245916  0.20729064  0.75033967     1.12500
C1538       C  0.78379544  0.22869597  0.89559427     1.12400
C1539       C  0.70646575  0.19192287  0.92743407     1.12500
C1540       C  0.79916889  0.21151046  0.72487127     1.12400
O1541       O  0.76974928  0.26780805  0.76353853    -0.77200
O1542       O  0.71540048  0.28559067  0.93142700    -0.77200
O1543       O  0.66541929  0.27125354  0.70143619    -0.77200
O1544       O  0.82307848  0.26216416  0.96812489    -0.77200
O1545       O  0.77782292  0.29067762  0.95923595    -0.77200
O1546       O  0.70986249  0.28197431  0.73796757    -0.77200
O1547       O  0.77541294  0.30515677  0.71479713    -0.77100
O1548       O  0.67414971  0.25419959  0.94986828    -0.77200
Co1549     Co  0.73995603  0.24225909  0.72486934     1.51500
Co1550     Co  0.74816023  0.25249213  0.94181450     1.51700
Co1551     Co  0.68916252  0.22710662  0.00026395     1.51600
Co1552     Co  0.79486095  0.27469186  0.67416533     1.51500
O1553       O  0.75163000  0.25415730  0.66499841    -1.39100
C1554       C  0.77559210  0.29738903  0.75340907     1.12500
C1555       C  0.68565813  0.27980692  0.93200652     1.12500
C1556       C  0.67971770  0.28673373  0.73089070     1.12500
C1557       C  0.80877279  0.28875791  0.95731055     1.12500
O1558       O  0.77900021  0.47146242  0.73623031    -0.77200
O1559       O  0.79430497  0.02436496  0.95066488    -0.77200
O1560       O  0.78049005  0.45630485  0.94926770    -0.77200
O1561       O  0.80139712  0.04271457  0.69804551    -0.77100
O1562       O  0.77103360  0.48610056  0.89041498    -0.77300
O1563       O  0.77139128  0.03344900  0.75489977    -0.77200
O1564       O  0.76885946  0.07098007  0.95160016    -0.77200
O1565       O  0.76932254  0.42328982  0.70477759    -0.77200
C1566       C  0.78452003  0.44033475  0.73235821     1.12500
C1567       C  0.79317140  0.05450255  0.94085992     1.12400
C1568       C  0.78665980  0.46375707  0.90979440     1.12500
C1569       C  0.79703135  0.04470778  0.73819207     1.12400
O1570       O  0.70596054  0.02904638  0.71652766    -0.77200
O1571       O  0.70944114  0.48561447  0.91890907    -0.77200
O1572       O  0.71187298  0.45564735  0.71177271    -0.77200
O1573       O  0.70161384  0.05561137  0.95108744    -0.77200
O1574       O  0.73394569  0.03503777  0.90254757    -0.77200
O1575       O  0.72064665  0.48116113  0.77340134    -0.77200
O1576       O  0.73764927  0.07015528  0.70452060    -0.77100
O1577       O  0.71123039  0.44332831  0.96096187    -0.77200
Co1578     Co  0.73962705  0.99846731  0.73483277     1.51500
Co1579     Co  0.75370455  0.99953855  0.93937880     1.51700
Co1580     Co  0.75523617  0.46267153  0.67752190     1.51600
Co1581     Co  0.76264990  0.04262644  0.66047771     1.51500
O1582       O  0.75621975  0.99391823  0.67402497    -1.39100
C1583       C  0.71141058  0.05918619  0.71973495     1.12500
C1584       C  0.69837886  0.45832504  0.93030000     1.12500
C1585       C  0.70481906  0.46023734  0.75185952     1.12500
C1586       C  0.70779058  0.04909832  0.91239760     1.12500
O1587       O  0.92722130  0.26704573  0.71647556    -0.77200
O1588       O  0.56271734  0.28079258  0.96286777    -0.77200
O1589       O  0.52330881  0.28435222  0.73442908    -0.77200
O1590       O  0.96559673  0.29933691  0.94760707    -0.77100
O1591       O  0.57079021  0.27621214  0.70498276    -0.77300
O1592       O  0.92762681  0.26474733  0.96205804    -0.77200
O1593       O  0.52954810  0.26494681  0.91137668    -0.77200
O1594       O  0.96631866  0.30069529  0.73463784    -0.77200
C1595       C  0.93733682  0.29250015  0.73633339     1.12500
C1596       C  0.55141908  0.28393260  0.92545047     1.12400
C1597       C  0.55356543  0.29100288  0.73234286     1.12500
C1598       C  0.93685029  0.29126333  0.94407904     1.12400
O1599       O  0.95848234  0.20190412  0.97367634    -0.77200
O1600       O  0.54184713  0.21528642  0.70929805    -0.77200
O1601       O  0.96663459  0.23304576  0.76594106    -0.77200
O1602       O  0.51631221  0.19743395  0.93355933    -0.77200
O1603       O  0.56557730  0.20945025  0.95476647    -0.77200
O1604       O  0.95471751  0.20197163  0.71014486    -0.77200
O1605       O  0.96442767  0.23081026  0.91415091    -0.77100
O1606       O  0.51762195  0.22330466  0.77106062    -0.77200
Co1607     Co  0.94769940  0.23862254  0.67024158     1.51500
Co1608     Co  0.56120436  0.24252211  0.00282556     1.51700
Co1609     Co  0.99853103  0.26626715  0.74219403     1.51600
Co1610     Co  0.99688068  0.26625358  0.93035961     1.51500
O1611       O  0.99416185  0.25351972  0.67907245    -1.39100
C1612       C  0.95566322  0.20454105  0.93340192     1.12500
C1613       C  0.53808734  0.20780770  0.74929326     1.12500
C1614       C  0.95601824  0.20623512  0.74995218     1.12500
C1615       C  0.54612338  0.19201075  0.93286620     1.12500
C1616       C  0.62411301  0.11611169  0.86775997     0.48400
H1617       H  0.62225916  0.10772277  0.90159249    -0.00600
C1618       C  0.62820752  0.13467187  0.78867350     0.48500
H1619       H  0.62908798  0.14266055  0.75467065    -0.00600
C1620       C  0.64674121  0.14515798  0.86153861    -0.14300
C1621       C  0.63890476  0.08979488  0.83785227    -0.14000
C1622       C  0.59213739  0.12911400  0.84977338    -0.14400
C1623       C  0.64898884  0.15526130  0.81965672    -0.14400
C1624       C  0.64114136  0.09975206  0.79567760    -0.14000
C1625       C  0.59417343  0.13757447  0.80721600    -0.14300
C1626       C  0.86827214  0.13626350  0.79408259     0.48400
H1627       H  0.87054230  0.13457230  0.75870017    -0.00600
C1628       C  0.86341611  0.14012855  0.87675882     0.48500
H1629       H  0.86124852  0.14191570  0.91216675    -0.00600
C1630       C  0.84772247  0.16553826  0.80873894    -0.14300
C1631       C  0.85251796  0.10541455  0.81472578    -0.14000
C1632       C  0.90063836  0.14262841  0.81732434    -0.14400
C1633       C  0.84477625  0.16721139  0.85247609    -0.14400
C1634       C  0.85041523  0.10746198  0.85863967    -0.14000
C1635       C  0.89803359  0.14422323  0.86110758    -0.14300
C1636       C  0.63012250  0.37102646  0.79439333     0.48400
H1637       H  0.63088615  0.37196329  0.75882552    -0.00600
C1638       C  0.62806241  0.36915895  0.87741258     0.48500
H1639       H  0.62728930  0.36838382  0.91298697    -0.00600
C1640       C  0.65530365  0.34828108  0.81469420    -0.14300
C1641       C  0.63727607  0.40452561  0.81501163    -0.14000
C1642       C  0.59829278  0.35746252  0.81176634    -0.14400
C1643       C  0.65441333  0.34744489  0.85839921    -0.14400
C1644       C  0.63576946  0.40375142  0.85905280    -0.14000
C1645       C  0.59721042  0.35599410  0.85571248    -0.14300
C1646       C  0.85895621  0.37160939  0.88271712     0.48400
H1647       H  0.86315820  0.37806043  0.91690795    -0.00600
C1648       C  0.84963738  0.35694839  0.80274723     0.48500
H1649       H  0.84559832  0.35040133  0.76852277    -0.00600
C1650       C  0.83040676  0.34882956  0.87534645    -0.14300
C1651       C  0.85080703  0.40175623  0.85431817    -0.14000
C1652       C  0.88683292  0.35212753  0.86255134    -0.14400
C1653       C  0.82547606  0.34079990  0.83345345    -0.14400
C1654       C  0.84678871  0.39367889  0.81191312    -0.14000
C1655       C  0.88225088  0.34594931  0.81959543    -0.14300
C1656       C  0.56713323  0.31594079  0.76015993    -0.10300
C1657       C  0.57932276  0.33583848  0.78425783    -0.11900
C1658       C  0.56429329  0.30991715  0.89841565    -0.10300
C1659       C  0.57740200  0.33177166  0.87826569    -0.11900
C1660       C  0.57144473  0.14771352  0.87922429    -0.10300
C1661       C  0.55864976  0.16645669  0.90451354    -0.11900
C1662       C  0.57179466  0.16006798  0.78638322    -0.10300
C1663       C  0.55587440  0.18109573  0.76874577    -0.10400
C1664       C  0.94185398  0.18123321  0.77668106    -0.10300
C1665       C  0.92534899  0.16145356  0.79549317    -0.11900
C1666       C  0.93878207  0.17923159  0.90937020    -0.10300
C1667       C  0.92158980  0.16133134  0.88804030    -0.11900
C1668       C  0.90479383  0.32966297  0.89010971    -0.10300
C1669       C  0.91709812  0.31091745  0.91569967    -0.11900
C1670       C  0.90224687  0.32559349  0.79235232    -0.10300
C1671       C  0.91699750  0.31021162  0.76567992    -0.11900
C1672       C  0.83282050  0.08464425  0.88648097    -0.10300
C1673       C  0.81663018  0.06938194  0.91222890    -0.11900
C1674       C  0.83568606  0.08070455  0.78852718    -0.10300
C1675       C  0.81959225  0.06293142  0.76523809    -0.11900
C1676       C  0.68827368  0.07854002  0.74383539    -0.10300
C1677       C  0.66667521  0.08816786  0.76692459    -0.11900
C1678       C  0.68462791  0.05806988  0.87985930    -0.10300
C1679       C  0.66345071  0.06910173  0.85737024    -0.11900
C1680       C  0.82782594  0.41302862  0.78249788    -0.10300
C1681       C  0.80882499  0.42567547  0.75853601    -0.11900
C1682       C  0.83205595  0.42842217  0.87276140    -0.10300
C1683       C  0.81226944  0.44648084  0.88851079    -0.11900
C1684       C  0.65364474  0.42706406  0.88544501    -0.10300
C1685       C  0.67235885  0.44310558  0.90677792    -0.11900
C1686       C  0.67845157  0.44277940  0.77213255    -0.10300
C1687       C  0.65821194  0.42732719  0.79171845    -0.11900
C1688       C  0.66394935  0.30286384  0.91002110    -0.13500
C1689       C  0.67563355  0.32636014  0.88417314    -0.28600
H1690       H  0.63820076  0.29970714  0.91347297     0.15600
H1691       H  0.70124939  0.32818704  0.87837019     0.16100
C1692       C  0.67507687  0.32600932  0.78921539    -0.13500
C1693       C  0.66218570  0.31113997  0.75508754    -0.28600
H1694       H  0.69897392  0.31959004  0.80045955     0.15600
H1695       H  0.63756945  0.31587521  0.74550891     0.16100
C1696       C  0.82659030  0.31614138  0.93935712    -0.13500
C1697       C  0.81178627  0.33450656  0.90980156    -0.28600
H1698       H  0.85251230  0.31618286  0.94227163     0.15600
H1699       H  0.78611336  0.33200009  0.90419884     0.16100
C1700       C  0.80228117  0.31593994  0.81850330    -0.13500
C1701       C  0.78517298  0.32284421  0.78369352    -0.28600
H1702       H  0.80388547  0.29094187  0.83085191     0.15600
H1703       H  0.78484714  0.34813425  0.77189740     0.16100
C1704       C  0.80174222  0.21000426  0.86357024    -0.13500
C1705       C  0.82723815  0.19240069  0.87720494    -0.28600
H1706       H  0.79280458  0.20911829  0.83098410     0.15600
H1707       H  0.83446384  0.19434842  0.91063111     0.16100
C1708       C  0.81875060  0.18545520  0.74496444    -0.13500
C1709       C  0.83712416  0.19207609  0.77919618    -0.28600
H1710       H  0.81292669  0.15991132  0.73754145     0.15600
H1711       H  0.84029510  0.21754064  0.78937292     0.16100
C1712       C  0.69451343  0.16866014  0.89594601    -0.13500
C1713       C  0.66377856  0.15953569  0.89809721    -0.28600
H1714       H  0.70856300  0.16419908  0.86738260     0.15600
H1715       H  0.64994722  0.16394860  0.92693071     0.16100
C1716       C  0.66977880  0.18210362  0.80485894    -0.13500
C1717       C  0.68370507  0.18013089  0.76669295    -0.28600
H1718       H  0.67406246  0.20331406  0.82544216     0.15600
H1719       H  0.67952545  0.15931920  0.74552181     0.16100
O1720       O  0.72086836  0.70098963  0.06420032    -0.77200
O1721       O  0.76866501  0.72327062  0.23166434    -0.77200
O1722       O  0.68340562  0.74523770  0.29915690    -0.77200
O1723       O  0.82169258  0.72786788  0.02602937    -0.77100
O1724       O  0.72224737  0.70882517  0.28972558    -0.77300
O1725       O  0.78263561  0.69597437  0.04232052    -0.77200
O1726       O  0.79683816  0.71279105  0.29127432    -0.77200
O1727       O  0.68502917  0.74048798  0.05346377    -0.77200
C1728       C  0.69276589  0.71220133  0.06771119     1.12500
C1729       C  0.78910834  0.70606863  0.25227568     1.12400
C1730       C  0.69293175  0.71682632  0.28678368     1.12500
C1731       C  0.81209936  0.70149791  0.04239732     1.12400
O1732       O  0.79372293  0.76425005  0.07755348    -0.77200
O1733       O  0.72093513  0.77105735  0.24716348    -0.77200
O1734       O  0.72305297  0.80043739  0.05020819    -0.77200
O1735       O  0.82569115  0.77084538  0.29474403    -0.77200
O1736       O  0.78093967  0.78418845  0.26494737    -0.77200
O1737       O  0.73180596  0.76392585  0.10076619    -0.77200
O1738       O  0.79578446  0.79187904  0.01649444    -0.77100
O1739       O  0.71975872  0.80838579  0.29689083    -0.77200
Co1740     Co  0.75730129  0.73114499  0.06792883     1.51500
Co1741     Co  0.75321975  0.74473444  0.28114281     1.51700
Co1742     Co  0.70396064  0.77808077  0.34051549     1.51600
Co1743     Co  0.79203125  0.75022869  0.98535473     1.51500
O1744       O  0.74768266  0.74706891  0.00841504    -1.39100
C1745       C  0.80081427  0.79038562  0.05624844     1.12500
C1746       C  0.71378625  0.79997899  0.25923336     1.12500
C1747       C  0.72325723  0.79239981  0.08896791     1.12500
C1748       C  0.81109019  0.78750965  0.26825828     1.12500
O1749       O  0.77079438  0.98231482  0.10596945    -0.77200
O1750       O  0.78265047  0.51839668  0.26495327    -0.77200
O1751       O  0.78031071  0.94983122  0.29448802    -0.77200
O1752       O  0.76853101  0.57219311  0.04667734    -0.77100
O1753       O  0.77090616  0.97572395  0.23331140    -0.77300
O1754       O  0.79014868  0.52387217  0.04652956    -0.77200
O1755       O  0.77272100  0.56466425  0.29414825    -0.77200
O1756       O  0.78856189  0.96062987  0.04497537    -0.77200
C1757       C  0.78999002  0.96336009  0.08605286     1.12500
C1758       C  0.78887036  0.54826354  0.26805935     1.12400
C1759       C  0.78678246  0.95466447  0.25432699     1.12500
C1760       C  0.79111827  0.55327239  0.05844212     1.12400
O1761       O  0.72928186  0.54059731  0.09225039    -0.77200
O1762       O  0.71357076  0.96933271  0.27372388    -0.77200
O1763       O  0.72158233  0.93868143  0.04610633    -0.77200
O1764       O  0.70505469  0.54479341  0.29813197    -0.77200
O1765       O  0.72037372  0.52346253  0.23535917    -0.77200
O1766       O  0.70916196  0.98515504  0.07379404    -0.77200
O1767       O  0.69973241  0.56162179  0.04071784    -0.77100
O1768       O  0.72096316  0.92048664  0.30377986    -0.77200
Co1769     Co  0.74757076  0.50346836  0.05595562     1.51500
Co1770     Co  0.74002666  0.50118071  0.28234131     1.51700
Co1771     Co  0.75224545  0.95505898  0.00092996     1.51600
Co1772     Co  0.73519177  0.56363055  0.99952604     1.51500
O1773       O  0.73411530  0.51163378  0.99739598    -1.39100
C1774       C  0.70462021  0.55673134  0.08000408     1.12500
C1775       C  0.70685743  0.93829795  0.27593649     1.12500
C1776       C  0.70456855  0.95498044  0.07144813     1.12500
C1777       C  0.70225058  0.54249719  0.25690951     1.12500
O1778       O  0.94895828  0.78056487  0.04269689    -0.77200
O1779       O  0.54055999  0.80505326  0.29090112    -0.77200
O1780       O  0.52732507  0.78745780  0.06052116    -0.77200
O1781       O  0.96976738  0.78556164  0.26360777    -0.77100
O1782       O  0.57471773  0.77722952  0.03114893    -0.77300
O1783       O  0.92264988  0.78014043  0.29581131    -0.77200
O1784       O  0.52581437  0.77067492  0.24135850    -0.77200
O1785       O  0.97503970  0.77460547  0.10380333    -0.77200
C1786       C  0.95312637  0.78874727  0.08247358     1.12500
C1787       C  0.53969844  0.79722304  0.25209504     1.12400
C1788       C  0.55755715  0.79353704  0.05720368     1.12500
C1789       C  0.93996475  0.79348394  0.26715324     1.12400
O1790       O  0.94902801  0.71872830  0.28821210    -0.77200
O1791       O  0.54522142  0.71772229  0.04422935    -0.77200
O1792       O  0.96899547  0.71341416  0.06657999    -0.77200
O1793       O  0.51685550  0.70823915  0.28195054    -0.77200
O1794       O  0.56245304  0.73572645  0.29066838    -0.77200
O1795       O  0.92151534  0.71918870  0.03481095    -0.77200
O1796       O  0.97458069  0.72436876  0.22694325    -0.77100
O1797       O  0.52039003  0.72969783  0.10446039    -0.77200
Co1798     Co  0.95812415  0.73734698  0.00655343     1.51500
Co1799     Co  0.55131628  0.77124586  0.33422135     1.51700
Co1800     Co  0.99415923  0.75648895  0.05327169     1.51600
Co1801     Co  0.99459709  0.74237688  0.27716048     1.51500
O1802       O  0.00498780  0.74578872  0.99200193    -1.39100
C1803       C  0.95255092  0.71062481  0.24831296     1.12500
C1804       C  0.54146595  0.71321117  0.08513617     1.12500
C1805       C  0.93911082  0.70549771  0.06318443     1.12500
C1806       C  0.54690652  0.71045468  0.27731734     1.12500
C1807       C  0.63112381  0.63682151  0.21930861     0.48400
H1808       H  0.63146148  0.63564408  0.25487786    -0.00600
C1809       C  0.63037249  0.63903642  0.13618324     0.48500
H1810       H  0.62986459  0.63951128  0.10060802    -0.00600
C1811       C  0.65646595  0.66040237  0.20070867    -0.14300
C1812       C  0.63860271  0.60346855  0.19783830    -0.14000
C1813       C  0.59928728  0.64946662  0.20046531    -0.14400
C1814       C  0.65597615  0.66142339  0.15665772    -0.14400
C1815       C  0.63889942  0.60481300  0.15400165    -0.14000
C1816       C  0.59880266  0.65068216  0.15640639    -0.14300
C1817       C  0.86632666  0.62460168  0.12119826     0.48400
H1818       H  0.86890802  0.62095769  0.08605024    -0.00600
C1819       C  0.86059504  0.63300728  0.20308805     0.48500
H1820       H  0.85878626  0.63654831  0.23820544    -0.00600
C1821       C  0.84103156  0.64972669  0.13305837    -0.14300
C1822       C  0.85456821  0.59353961  0.14434273    -0.14000
C1823       C  0.89672421  0.63828346  0.14242879    -0.14400
C1824       C  0.83753365  0.65443887  0.17599627    -0.14400
C1825       C  0.85197913  0.59757152  0.18826505    -0.14000
C1826       C  0.89420891  0.64241583  0.18598091    -0.14300
C1827       C  0.63480726  0.86899525  0.12122882     0.48400
H1828       H  0.63602899  0.87246213  0.08591015    -0.00600
C1829       C  0.63211392  0.86076826  0.20353530     0.48500
H1830       H  0.63105565  0.85694528  0.23877291    -0.00600
C1831       C  0.65704131  0.84201865  0.13784451    -0.14300
C1832       C  0.64539533  0.89950535  0.14653553    -0.14000
C1833       C  0.60168744  0.85838636  0.13684861    -0.14400
C1834       C  0.65526527  0.83718030  0.18105401    -0.14400
C1835       C  0.64448248  0.89514069  0.19032942    -0.14000
C1836       C  0.59989378  0.85445582  0.18042332    -0.14300
C1837       C  0.86336222  0.86996289  0.20655271     0.48400
H1838       H  0.86336465  0.86982888  0.24219103    -0.00600
C1839       C  0.86356553  0.87005904  0.12340066     0.48500
H1840       H  0.86411094  0.87072650  0.08790750    -0.00600
C1841       C  0.83788664  0.84760714  0.18611217    -0.14300
C1842       C  0.85539336  0.90349812  0.18829096    -0.14000
C1843       C  0.89494532  0.85795765  0.18738868    -0.14400
C1844       C  0.83823125  0.84648082  0.14248587    -0.14400
C1845       C  0.85551896  0.90407052  0.14432221    -0.14000
C1846       C  0.89538689  0.85738792  0.14340303    -0.14300
C1847       C  0.57104691  0.81924340  0.08309977    -0.10300
C1848       C  0.58245507  0.83895222  0.10771369    -0.11900
C1849       C  0.55692642  0.81750082  0.22169091    -0.10300
C1850       C  0.57493801  0.83495149  0.20124434    -0.11900
C1851       C  0.57772400  0.66808051  0.22771712    -0.10300
C1852       C  0.56313245  0.68598497  0.25176214    -0.11900
C1853       C  0.57629461  0.67054551  0.13108167    -0.10300
C1854       C  0.56013931  0.68895514  0.10894137    -0.10400
C1855       C  0.92666072  0.68037327  0.09133614    -0.10300
C1856       C  0.91593802  0.66020801  0.11606188    -0.11900
C1857       C  0.93238214  0.68519177  0.22851659    -0.10300
C1858       C  0.91538673  0.66495659  0.21018093    -0.11900
C1859       C  0.91507665  0.83735625  0.21407395    -0.10300
C1860       C  0.92704709  0.81806660  0.23883147    -0.11900
C1861       C  0.91695876  0.83527731  0.11965276    -0.10300
C1862       C  0.93375303  0.81473370  0.10199512    -0.11900
C1863       C  0.83122066  0.57735006  0.21576710    -0.10300
C1864       C  0.81273829  0.56367026  0.24030785    -0.11900
C1865       C  0.83299089  0.57307515  0.11839639    -0.10300
C1866       C  0.81454905  0.56337256  0.09068224    -0.11900
C1867       C  0.68151791  0.56995074  0.10968131    -0.10300
C1868       C  0.66084122  0.58400422  0.12975845    -0.11900
C1869       C  0.67691800  0.56058430  0.23633276    -0.10300
C1870       C  0.65745342  0.57891668  0.22041634    -0.11900
C1871       C  0.83544024  0.92783756  0.12233064    -0.10300
C1872       C  0.81526879  0.94598909  0.10768885    -0.11900
C1873       C  0.83404664  0.92427351  0.21358856    -0.10300
C1874       C  0.81324009  0.93810607  0.23372211    -0.11900
C1875       C  0.66459134  0.91336615  0.22047813    -0.10300
C1876       C  0.68308848  0.92468135  0.24684629    -0.11900
C1877       C  0.68197320  0.93903276  0.09980894    -0.10300
C1878       C  0.66479057  0.92377436  0.12404055    -0.11900
C1879       C  0.69557441  0.82293246  0.23303890    -0.13500
C1880       C  0.67414452  0.81257617  0.20433878    -0.28600
H1881       H  0.69728434  0.84905929  0.24072534     0.15600
H1882       H  0.67203766  0.78663641  0.19589913     0.16100
C1883       C  0.67786057  0.82410472  0.10848835    -0.13500
C1884       C  0.70740927  0.81385599  0.11888945    -0.28600
H1885       H  0.66822249  0.81936583  0.07661655     0.15600
H1886       H  0.71845379  0.81847011  0.14976658     0.16100
C1887       C  0.82929372  0.81091343  0.24401215    -0.13500
C1888       C  0.81651069  0.82760701  0.21198934    -0.28600
H1889       H  0.85479054  0.81286377  0.25124927     0.15600
H1890       H  0.79158566  0.82418870  0.20250195     0.16100
C1891       C  0.82058321  0.81999890  0.11919776    -0.13500
C1892       C  0.81700397  0.81868638  0.07681830    -0.28600
H1893       H  0.81063796  0.79988739  0.13796292     0.15600
H1894       H  0.82576007  0.83857806  0.05673853     0.16100
C1895       C  0.80478067  0.67776958  0.23318688    -0.13500
C1896       C  0.81512943  0.67911115  0.19315712    -0.28600
H1897       H  0.81162752  0.65766258  0.25423116     0.15600
H1898       H  0.80832050  0.69988043  0.17303177     0.16100
C1899       C  0.83322282  0.68066307  0.06742307    -0.13500
C1900       C  0.82070654  0.66530041  0.10120493    -0.28600
H1901       H  0.85894363  0.68144300  0.06221769     0.15600
H1902       H  0.79529161  0.66725929  0.10846637     0.16100
C1903       C  0.67030887  0.69485824  0.26389743    -0.13500
C1904       C  0.67935774  0.67939989  0.22781119    -0.28600
H1905       H  0.64527989  0.69460922  0.27339879     0.15600
H1906       H  0.70370014  0.68271925  0.21636025     0.16100
C1907       C  0.67857229  0.68048375  0.13038423    -0.13500
C1908       C  0.66955677  0.69364377  0.09283109    -0.28600
H1909       H  0.70293173  0.68409844  0.14205716     0.15600
H1910       H  0.64461203  0.69329778  0.08258619     0.16100
O1911       O  0.71686168  0.70928459  0.38880220    -0.77200
O1912       O  0.76352591  0.71613965  0.56147117    -0.77200
O1913       O  0.68644637  0.74628493  0.63764259    -0.77200
O1914       O  0.82265168  0.72859373  0.37097407    -0.77100
O1915       O  0.72105667  0.70584457  0.62716305    -0.77300
O1916       O  0.77923423  0.70035550  0.37762569    -0.77200
O1917       O  0.79650985  0.71089586  0.61739008    -0.77200
O1918       O  0.68255372  0.75005768  0.38531086    -0.77200
C1919       C  0.68979722  0.72102382  0.39677839     1.12500
C1920       C  0.78653138  0.70133637  0.58032423     1.12400
C1921       C  0.69292867  0.71721843  0.62452344     1.12500
C1922       C  0.80931591  0.70209190  0.37991527     1.12400
O1923       O  0.79130095  0.76626071  0.41898861    -0.77200
O1924       O  0.72183743  0.76860479  0.58279204    -0.77200
O1925       O  0.72031659  0.80951181  0.38226491    -0.77200
O1926       O  0.83233373  0.76779641  0.61494320    -0.77200
O1927       O  0.78260862  0.77522097  0.59128445    -0.77200
O1928       O  0.72830204  0.77141898  0.43170211    -0.77200
O1929       O  0.79932716  0.79488888  0.36044749    -0.77100
O1930       O  0.72701976  0.80610359  0.63212011    -0.77200
Co1931     Co  0.75360252  0.73729801  0.40049462     1.51500
Co1932     Co  0.75355954  0.73843869  0.61330650     1.51700
Co1933     Co  0.71186805  0.77655247  0.67719387     1.51600
Co1934     Co  0.79521395  0.75255362  0.33212559     1.51500
O1935       O  0.74781486  0.75756524  0.34132328    -1.39100
C1936       C  0.80196287  0.79206645  0.40032440     1.12500
C1937       C  0.71788763  0.79821873  0.59523262     1.12500
C1938       C  0.72076289  0.80053527  0.42079349     1.12500
C1939       C  0.81260306  0.78114534  0.58908035     1.12500
O1940       O  0.79562832  0.97004428  0.38977211    -0.77200
O1941       O  0.76778421  0.53941501  0.57440243    -0.77200
O1942       O  0.80189373  0.95561373  0.62316695    -0.77200
O1943       O  0.77976543  0.56203655  0.37852306    -0.77100
O1944       O  0.76859572  0.97153267  0.57388268    -0.77300
O1945       O  0.78568328  0.51721378  0.41438413    -0.77200
O1946       O  0.79995805  0.55139473  0.62832827    -0.77200
O1947       O  0.76254443  0.93020654  0.37550111    -0.77200
C1948       C  0.78889827  0.94012974  0.39157989     1.12500
C1949       C  0.79462021  0.54989144  0.58871468     1.12400
C1950       C  0.79465406  0.95734873  0.58418398     1.12500
C1951       C  0.79548087  0.54508214  0.40489405     1.12400
O1952       O  0.72635139  0.52354200  0.45018532    -0.77200
O1953       O  0.70754543  0.97876676  0.61636288    -0.77200
O1954       O  0.70030318  0.96021475  0.37008341    -0.77200
O1955       O  0.73608627  0.57981306  0.62553148    -0.77200
O1956       O  0.70339558  0.53858736  0.61191305    -0.77200
O1957       O  0.73067415  0.96742119  0.42757875    -0.77200
O1958       O  0.71032476  0.54889359  0.39032651    -0.77100
O1959       O  0.73458755  0.93239025  0.62360326    -0.77200
Co1960     Co  0.74250060  0.50155185  0.40064168     1.51500
Co1961     Co  0.73618135  0.50663051  0.60034021     1.51700
Co1962     Co  0.73877624  0.95858054  0.33184920     1.51600
Co1963     Co  0.74331482  0.54747790  0.34046692     1.51500
O1964       O  0.75501955  0.49333335  0.34092660    -1.39100
C1965       C  0.70901228  0.54503262  0.43146826     1.12500
C1966       C  0.70995654  0.94812015  0.61037373     1.12500
C1967       C  0.70439154  0.95804276  0.41044859     1.12500
C1968       C  0.70974534  0.56854896  0.61085924     1.12500
O1969       O  0.96280626  0.80267215  0.35972099    -0.77200
O1970       O  0.54415690  0.78472826  0.62939724    -0.77200
O1971       O  0.53180829  0.77205538  0.42869296    -0.77200
O1972       O  0.98327158  0.80152009  0.60643816    -0.77100
O1973       O  0.54457583  0.80614661  0.37629977    -0.77300
O1974       O  0.93311369  0.78741336  0.61835563    -0.77200
O1975       O  0.51953260  0.78011147  0.56674282    -0.77200
O1976       O  0.96918259  0.77250689  0.41808473    -0.77200
C1977       C  0.96094428  0.79945740  0.40012446     1.12500
C1978       C  0.54127471  0.79316339  0.58965776     1.12400
C1979       C  0.54324218  0.79954577  0.41555855     1.12500
C1980       C  0.95364575  0.80634816  0.60083979     1.12400
O1981       O  0.93329907  0.71663974  0.62221969    -0.77200
O1982       O  0.57049765  0.74002316  0.37954254    -0.77200
O1983       O  0.97010980  0.70465117  0.38166337    -0.77200
O1984       O  0.52347931  0.71943576  0.60345983    -0.77200
O1985       O  0.57043694  0.72367047  0.63670977    -0.77200
O1986       O  0.93204869  0.73929368  0.36910054    -0.77200
O1987       O  0.96353623  0.73843265  0.57101283    -0.77100
O1988       O  0.53045007  0.70618220  0.38737276    -0.77200
Co1989     Co  0.95946112  0.76218890  0.32358362     1.51500
Co1990     Co  0.53351037  0.74163323  0.66417240     1.51700
Co1991     Co  0.00136088  0.73785099  0.39976807     1.51600
Co1992     Co  0.00031624  0.75577049  0.60708193     1.51500
O1993       O  0.00620173  0.75322946  0.33832083    -1.39100
C1994       C  0.94237067  0.71775061  0.58357814     1.12500
C1995       C  0.55914602  0.71304357  0.39398108     1.12500
C1996       C  0.94140416  0.71231183  0.38567576     1.12500
C1997       C  0.55340022  0.71213133  0.60617886     1.12500
C1998       C  0.63264365  0.64626070  0.54875966     0.48400
H1999       H  0.62951835  0.64747918  0.58403701    -0.00600
C2000       C  0.63864853  0.64095396  0.46659509     0.48500
H2001       H  0.64138622  0.63843568  0.43134389    -0.00600
C2002       C  0.65763985  0.67000313  0.53044206    -0.14300
C2003       C  0.64460672  0.61274232  0.53473349    -0.14000
C2004       C  0.60202795  0.65429645  0.52400426    -0.14400
C2005       C  0.66055810  0.66731869  0.48674570    -0.14400
C2006       C  0.64726733  0.60914876  0.49127518    -0.14000
C2007       C  0.60520741  0.65248281  0.48016099    -0.14300
C2008       C  0.86816487  0.62657294  0.44639700     0.48400
H2009       H  0.87061746  0.62272642  0.41127733    -0.00600
C2010       C  0.86304454  0.63505878  0.52827302     0.48500
H2011       H  0.86186997  0.63871322  0.56342726    -0.00600
C2012       C  0.83838879  0.64565022  0.45939347    -0.14300
C2013       C  0.86379154  0.59426821  0.47090885    -0.14000
C2014       C  0.89565798  0.64688004  0.46534048    -0.14400
C2015       C  0.83554322  0.65110888  0.50234858    -0.14400
C2016       C  0.86067252  0.59845041  0.51458281    -0.14000
C2017       C  0.89379664  0.65041123  0.50884163    -0.14300
C2018       C  0.63096026  0.87139875  0.46490034     0.48400
H2019       H  0.62833856  0.87432803  0.42963951    -0.00600
C2020       C  0.63717340  0.86404025  0.54723380     0.48500
H2021       H  0.63984777  0.86064483  0.58241297    -0.00600
C2022       C  0.65495079  0.84472101  0.47779451    -0.14300
C2023       C  0.64457305  0.90238894  0.48728627    -0.14000
C2024       C  0.59967474  0.86079455  0.48734617    -0.14400
C2025       C  0.65789061  0.84023419  0.52106227    -0.14400
C2026       C  0.64757391  0.89840345  0.53112202    -0.14000
C2027       C  0.60291050  0.85745235  0.53079428    -0.14300
C2028       C  0.87557700  0.87535477  0.53557558     0.48400
H2029       H  0.87647897  0.88003966  0.57065948    -0.00600
C2030       C  0.87291446  0.86449692  0.45391267     0.48500
H2031       H  0.87222900  0.86010703  0.41877478    -0.00600
C2032       C  0.85756609  0.84378766  0.52367268    -0.14300
C2033       C  0.85778196  0.90286271  0.51030089    -0.14000
C2034       C  0.90873762  0.86842738  0.51616325    -0.14400
C2035       C  0.85483003  0.83854070  0.48023274    -0.14400
C2036       C  0.85660274  0.89666642  0.46705265    -0.14000
C2037       C  0.90741314  0.86335890  0.47233159    -0.14300
C2038       C  0.55845673  0.82263939  0.44450402    -0.10300
C2039       C  0.57545689  0.84180688  0.46403926    -0.11900
C2040       C  0.56218978  0.81811560  0.57201434    -0.10300
C2041       C  0.58052078  0.83748429  0.55547375    -0.11900
C2042       C  0.57908702  0.67395014  0.54706594    -0.10300
C2043       C  0.56664062  0.69076920  0.57414691    -0.11900
C2044       C  0.58769660  0.67351222  0.45026088    -0.10300
C2045       C  0.57654854  0.69192810  0.42335242    -0.10400
C2046       C  0.92203154  0.69150895  0.41299623    -0.10300
C2047       C  0.91100126  0.67141095  0.43782501    -0.11900
C2048       C  0.92759121  0.69476292  0.55383051    -0.10300
C2049       C  0.91307083  0.67442166  0.53265608    -0.11900
C2050       C  0.93088068  0.85015867  0.54425442    -0.10300
C2051       C  0.94292106  0.83177156  0.57082168    -0.11900
C2052       C  0.93109302  0.84405455  0.44848961    -0.10300
C2053       C  0.94641011  0.82519793  0.42614872    -0.11900
C2054       C  0.83924026  0.57709234  0.53929411    -0.10300
C2055       C  0.81889716  0.56289109  0.56014233    -0.11900
C2056       C  0.84436318  0.57041514  0.44776548    -0.10300
C2057       C  0.82343452  0.55777657  0.42646081    -0.11900
C2058       C  0.68618134  0.56476623  0.45522194    -0.10300
C2059       C  0.66768528  0.58394271  0.47192185    -0.11900
C2060       C  0.68753975  0.58807929  0.58765416    -0.10300
C2061       C  0.66711622  0.59775231  0.56363387    -0.11900
C2062       C  0.83154649  0.90949033  0.43914133    -0.10300
C2063       C  0.81061280  0.91971653  0.41567432    -0.11900
C2064       C  0.83509645  0.92527874  0.53208619    -0.10300
C2065       C  0.81589323  0.94146560  0.55297256    -0.11900
C2066       C  0.66788394  0.91855804  0.55877337    -0.10300
C2067       C  0.68623286  0.93188689  0.58366016    -0.11900
C2068       C  0.68040612  0.94212953  0.43773342    -0.10300
C2069       C  0.66313174  0.92628031  0.46177609    -0.11900
C2070       C  0.69959359  0.82278893  0.57092868    -0.13500
C2071       C  0.67818598  0.81455072  0.54087780    -0.28600
H2072       H  0.70133721  0.84837937  0.58121359     0.15600
H2073       H  0.67630121  0.78926223  0.52953330     0.16100
C2074       C  0.67426633  0.82799760  0.44558789    -0.13500
C2075       C  0.70540069  0.82140565  0.45174434    -0.28600
H2076       H  0.66254142  0.82149870  0.41552265     0.15600
H2077       H  0.71817383  0.82803451  0.48084550     0.16100
C2078       C  0.82189012  0.80458402  0.55653990    -0.13500
C2079       C  0.84998413  0.81958484  0.55677285    -0.28600
H2080       H  0.80385720  0.81128120  0.53278788     0.15600
H2081       H  0.86695960  0.81570351  0.58281607     0.16100
C2082       C  0.83613801  0.81167581  0.45968515    -0.13500
C2083       C  0.81967767  0.81766348  0.42353402    -0.28600
H2084       H  0.83524982  0.78741692  0.47440648     0.15600
H2085       H  0.82052758  0.84192598  0.40880939     0.16100
C2086       C  0.80302396  0.67324727  0.56128510    -0.13500
C2087       C  0.81091202  0.67348941  0.52007700    -0.28600
H2088       H  0.81325397  0.65509161  0.58287660     0.15600
H2089       H  0.80095449  0.69251510  0.49938697     0.16100
C2090       C  0.82798678  0.67522715  0.39565363    -0.13500
C2091       C  0.81601874  0.65814850  0.42797282    -0.28600
H2092       H  0.85357187  0.67567125  0.38927958     0.15600
H2093       H  0.79089745  0.66032659  0.43675501     0.16100
C2094       C  0.66965920  0.69954646  0.59805402    -0.13500
C2095       C  0.67808232  0.69085145  0.55808993    -0.28600
H2096       H  0.64555235  0.69579126  0.61000662     0.15600
H2097       H  0.70139127  0.69821490  0.54595315     0.16100
C2098       C  0.68076727  0.68842370  0.46009568    -0.13500
C2099       C  0.66871804  0.70229161  0.42447168    -0.28600
H2100       H  0.70555399  0.69271706  0.46962408     0.15600
H2101       H  0.64341694  0.70076861  0.41660533     0.16100
O2102       O  0.72536529  0.70619561  0.72855711    -0.77200
O2103       O  0.76652484  0.71830480  0.89328511    -0.77200
O2104       O  0.68358949  0.73765920  0.96692525    -0.77200
O2105       O  0.82741636  0.73063528  0.68910364    -0.77100
O2106       O  0.72198438  0.70148976  0.95363833    -0.77300
O2107       O  0.78816957  0.69903218  0.70730878    -0.77200
O2108       O  0.79197788  0.70560182  0.95361701    -0.77200
O2109       O  0.69180844  0.74841707  0.72202914    -0.77200
C2110       C  0.69777581  0.71882262  0.73245837     1.12500
C2111       C  0.78632136  0.70034916  0.91371766     1.12400
C2112       C  0.69279935  0.70987169  0.95189998     1.12500
C2113       C  0.81778668  0.70441057  0.70701270     1.12400
O2114       O  0.80039252  0.76606507  0.74271191    -0.77200
O2115       O  0.72078519  0.76481599  0.91497090    -0.77200
O2116       O  0.73278901  0.80608492  0.71820202    -0.77200
O2117       O  0.82988692  0.75961365  0.95509917    -0.77200
O2118       O  0.78310917  0.77639703  0.93010518    -0.77200
O2119       O  0.73908203  0.76775943  0.76707176    -0.77200
O2120       O  0.80187406  0.79602710  0.68321020    -0.77100
O2121       O  0.72117923  0.80055034  0.96630423    -0.77200
Co2122     Co  0.76314218  0.73455685  0.73315897     1.51500
Co2123     Co  0.75316978  0.73714768  0.94598376     1.51700
Co2124     Co  0.70535573  0.76940337  0.00886261     1.51600
Co2125     Co  0.79702341  0.75552624  0.64990271     1.51500
O2126       O  0.75312664  0.75178494  0.67439548    -1.39100
C2127       C  0.80688694  0.79303460  0.72300617     1.12500
C2128       C  0.71461289  0.79348204  0.92848796     1.12500
C2129       C  0.73159336  0.79686200  0.75659264     1.12500
C2130       C  0.81395537  0.77823669  0.93089574     1.12500
O2131       O  0.77193922  0.96642955  0.76147758    -0.77200
O2132       O  0.79271078  0.52531219  0.95323171    -0.77200
O2133       O  0.78746124  0.95573731  0.95433008    -0.77200
O2134       O  0.79747729  0.54523754  0.71290606    -0.77100
O2135       O  0.77497685  0.98025717  0.89221611    -0.77300
O2136       O  0.76242229  0.53258866  0.76133894    -0.77200
O2137       O  0.77046894  0.57369185  0.95714394    -0.77200
O2138       O  0.80355008  0.95338412  0.70760189    -0.77200
C2139       C  0.79845544  0.95547854  0.74693050     1.12500
C2140       C  0.79391225  0.55588182  0.94616102     1.12400
C2141       C  0.79257005  0.96092199  0.91409469     1.12500
C2142       C  0.79004411  0.54322405  0.75156248     1.12400
O2143       O  0.70064147  0.52875970  0.71811973    -0.77200
O2144       O  0.71330666  0.97803735  0.91964627    -0.77200
O2145       O  0.73967326  0.92502408  0.71345682    -0.77200
O2146       O  0.70209077  0.56259948  0.95435536    -0.77200
O2147       O  0.73378993  0.54220906  0.90509268    -0.77200
O2148       O  0.70685003  0.96588176  0.72189855    -0.77200
O2149       O  0.73125590  0.57304351  0.71343168    -0.77100
O2150       O  0.71957752  0.93583363  0.96051872    -0.77200
Co2151     Co  0.73871402  0.49996673  0.72317294     1.51500
Co2152     Co  0.75086629  0.50398885  0.93947690     1.51700
Co2153     Co  0.76917804  0.94501629  0.66707730     1.51600
Co2154     Co  0.76557236  0.55912277  0.66994872     1.51500
O2155       O  0.75011630  0.51125779  0.66235335    -1.39100
C2156       C  0.70479261  0.55930506  0.72425263     1.12500
C2157       C  0.70571616  0.94916892  0.92929639     1.12500
C2158       C  0.71366989  0.93654927  0.72858148     1.12500
C2159       C  0.70832599  0.55722191  0.91557071     1.12500
O2160       O  0.93692848  0.78831034  0.70873113    -0.77200
O2161       O  0.53690949  0.79837952  0.96478729    -0.77200
O2162       O  0.52295479  0.80042254  0.71922143    -0.77200
O2163       O  0.97017889  0.79582987  0.94994816    -0.77100
O2164       O  0.56070340  0.76496146  0.70925807    -0.77300
O2165       O  0.93104641  0.76200184  0.96221965    -0.77200
O2166       O  0.52747332  0.76724704  0.90802513    -0.77200
O2167       O  0.96204560  0.76002408  0.75980426    -0.77200
C2168       C  0.94421472  0.78409325  0.74792212     1.12500
C2169       C  0.53949333  0.79331926  0.92474655     1.12400
C2170       C  0.55137129  0.79206687  0.72503241     1.12500
C2171       C  0.94113357  0.78900299  0.94640001     1.12400
O2172       O  0.95953332  0.69772861  0.96852036    -0.77200
O2173       O  0.53079144  0.70221505  0.70210907    -0.77200
O2174       O  0.97813513  0.69710384  0.71892835    -0.77200
O2175       O  0.52391324  0.70088084  0.94780225    -0.77200
O2176       O  0.56356595  0.73389030  0.96057791    -0.77200
O2177       O  0.92986248  0.71782482  0.71115285    -0.77200
O2178       O  0.96673705  0.72910619  0.91143593    -0.77100
O2179       O  0.52278843  0.73394597  0.75875406    -0.77200
Co2180     Co  0.93631837  0.75258439  0.66509522     1.51500
Co2181     Co  0.53724831  0.75951502  0.00441648     1.51700
Co2182     Co  0.99823602  0.74120339  0.72407594     1.51600
Co2183     Co  0.00033753  0.76224595  0.93093970     1.51500
O2184       O  0.98507474  0.75059814  0.66561315    -1.39100
C2185       C  0.95700685  0.70227618  0.92829828     1.12500
C2186       C  0.53356834  0.70739033  0.74219653     1.12500
C2187       C  0.94838742  0.69550196  0.72563512     1.12500
C2188       C  0.55291531  0.70760732  0.94342491     1.12500
C2189       C  0.63317082  0.63544551  0.87222011     0.48400
H2190       H  0.63401164  0.63050042  0.90724766    -0.00600
C2191       C  0.63069887  0.64542551  0.79024566     0.48500
H2192       H  0.62952907  0.64954290  0.75511663    -0.00600
C2193       C  0.65712491  0.66151168  0.85761970    -0.14300
C2194       C  0.64216725  0.60491385  0.84494243    -0.14000
C2195       C  0.60080877  0.64921102  0.85697425    -0.14400
C2196       C  0.65615430  0.66647317  0.81409864    -0.14400
C2197       C  0.64097562  0.61014599  0.80141912    -0.14000
C2198       C  0.59885846  0.65324444  0.81322231    -0.14300
C2199       C  0.87003805  0.62134366  0.79077583     0.48400
H2200       H  0.87199721  0.61416680  0.75652913    -0.00600
C2201       C  0.86561777  0.63713763  0.87105445     0.48500
H2202       H  0.86375535  0.64433033  0.90528505    -0.00600
C2203       C  0.84637285  0.64923859  0.79839330    -0.14300
C2204       C  0.85730340  0.59298864  0.81991056    -0.14000
C2205       C  0.90158863  0.63519560  0.80986704    -0.14400
C2206       C  0.84313546  0.65682527  0.84076897    -0.14400
C2207       C  0.85618186  0.60118354  0.86260101    -0.14000
C2208       C  0.89944419  0.64266850  0.85285812    -0.14300
C2209       C  0.63573073  0.85966360  0.78755544     0.48400
H2210       H  0.63538565  0.86080715  0.75192049    -0.00600
C2211       C  0.63611102  0.85708339  0.87059372     0.48500
H2212       H  0.63668782  0.85560061  0.90613274    -0.00600
C2213       C  0.65839426  0.83398055  0.80521584    -0.14300
C2214       C  0.64856067  0.89130085  0.80813250    -0.14000
C2215       C  0.60325009  0.85006286  0.80682376    -0.14400
C2216       C  0.65839511  0.83190858  0.84876113    -0.14400
C2217       C  0.64792653  0.89066640  0.85239523    -0.14000
C2218       C  0.60283279  0.84900839  0.85096552    -0.14300
C2219       C  0.86255744  0.86853170  0.88091653     0.48400
H2220       H  0.86006963  0.86908903  0.91636497    -0.00600
C2221       C  0.86806194  0.86682209  0.79824354     0.48500
H2222       H  0.87136670  0.86665774  0.76304551    -0.00600
C2223       C  0.83654154  0.84791139  0.85833906    -0.14300
C2224       C  0.85966182  0.90247621  0.86004794    -0.14000
C2225       C  0.89389599  0.85266881  0.86608050    -0.14400
C2226       C  0.83947227  0.84637274  0.81472961    -0.14400
C2227       C  0.86193285  0.90170856  0.81635672    -0.14000
C2228       C  0.89699983  0.85161326  0.82232627    -0.14300
C2229       C  0.57038076  0.81159857  0.75399942    -0.10300
C2230       C  0.58308886  0.82951465  0.77997131    -0.11900
C2231       C  0.55924976  0.81546526  0.89823027    -0.10300
C2232       C  0.57799043  0.83155938  0.87624011    -0.11900
C2233       C  0.58301532  0.66953476  0.88723847    -0.10300
C2234       C  0.57130220  0.68734219  0.91427475    -0.11900
C2235       C  0.57267142  0.67026585  0.79045908    -0.10300
C2236       C  0.55318997  0.68551280  0.76879509    -0.10400
C2237       C  0.93583482  0.67065523  0.75464984    -0.10300
C2238       C  0.92305707  0.65292921  0.78100621    -0.11900
C2239       C  0.94000933  0.67853759  0.90119733    -0.10300
C2240       C  0.92327046  0.66147648  0.87777686    -0.11900
C2241       C  0.91054222  0.83037727  0.89516547    -0.10300
C2242       C  0.92199919  0.81069193  0.92012805    -0.11900
C2243       C  0.91750986  0.82775611  0.80045543    -0.10300
C2244       C  0.93118455  0.80717112  0.77890392    -0.11900
C2245       C  0.83735771  0.58294989  0.89443687    -0.10300
C2246       C  0.81929410  0.56990430  0.91993276    -0.11900
C2247       C  0.83417387  0.56964545  0.80195229    -0.10300
C2248       C  0.81300434  0.55513698  0.78283865    -0.11900
C2249       C  0.68055624  0.57766135  0.74811514    -0.10300
C2250       C  0.66143887  0.59177066  0.77129495    -0.11900
C2251       C  0.68587528  0.56872890  0.88397799    -0.10300
C2252       C  0.66505069  0.58219350  0.86356262    -0.11900
C2253       C  0.84276277  0.92483144  0.79169742    -0.10300
C2254       C  0.82254114  0.94134771  0.77416873    -0.11900
C2255       C  0.84019025  0.92725648  0.88091926    -0.10300
C2256       C  0.81949944  0.94475894  0.89512136    -0.11900
C2257       C  0.66621966  0.91356185  0.87963291    -0.10300
C2258       C  0.68287326  0.93065342  0.90306048    -0.11900
C2259       C  0.69290413  0.91878055  0.75788148    -0.10300
C2260       C  0.67307545  0.90856356  0.78318919    -0.11900
C2261       C  0.69659872  0.81738021  0.90366694    -0.13500
C2262       C  0.67772435  0.80771748  0.87177130    -0.28600
H2263       H  0.69655800  0.84297895  0.91415105     0.15600
H2264       H  0.67794424  0.78233085  0.86049763     0.16100
C2265       C  0.68092841  0.81748155  0.77692096    -0.13500
C2266       C  0.71232414  0.81567236  0.78585093    -0.28600
H2267       H  0.67165673  0.80871728  0.74633335     0.15600
H2268       H  0.72265727  0.82481774  0.81554895     0.16100
C2269       C  0.83087637  0.80304906  0.90698120    -0.13500
C2270       C  0.81626432  0.82534901  0.88263791    -0.28600
H2271       H  0.85682549  0.80257435  0.90945646     0.15600
H2272       H  0.79037285  0.82504002  0.87757234     0.16100
C2273       C  0.82195044  0.82135384  0.78895384    -0.13500
C2274       C  0.82203143  0.82056212  0.74615886    -0.28600
H2275       H  0.80915928  0.80202095  0.80594522     0.15600
H2276       H  0.83283407  0.84029874  0.72770060     0.16100
C2277       C  0.80393354  0.67418318  0.89308300    -0.13500
C2278       C  0.81885186  0.67997001  0.85626176    -0.28600
H2279       H  0.80921474  0.65222271  0.91174804     0.15600
H2280       H  0.81375983  0.70216422  0.83787218     0.16100
C2281       C  0.83923650  0.68328619  0.73300621    -0.13500
C2282       C  0.82665015  0.66437894  0.76426729    -0.28600
H2283       H  0.86505278  0.68626155  0.73045040     0.15600
H2284       H  0.80085083  0.66382046  0.76900378     0.16100
C2285       C  0.67039764  0.68970001  0.92614938    -0.13500
C2286       C  0.67963795  0.67827938  0.88762408    -0.28600
H2287       H  0.64549590  0.68782688  0.93586989     0.15600
H2288       H  0.70384135  0.68341505  0.87679590     0.16100
C2289       C  0.68005540  0.68590334  0.79112407    -0.13500
C2290       C  0.67300053  0.70032958  0.75399400    -0.28600
H2291       H  0.70408678  0.68818941  0.80448906     0.15600
H2292       H  0.64855252  0.70138604  0.74187653     0.16100
loop_ 
_geom_bond_atom_site_label_1 
_geom_bond_atom_site_label_2 
_geom_bond_distance 
_geom_bond_site_symmetry_2 
_ccdc_geom_bond_type 
O1            C9   1.263       .  A
O1          Co21   1.948       .  S
O2           C10   1.274       .  A
O2          Co22   1.886       .  S
O3           C11   1.248       .  A
O3          Co23   1.968       .  S
O4           C12   1.253       .  A
O4          Co24   1.993   1_554  S
O5           C11   1.244       .  A
O5          Co22   2.004       .  S
O6           C12   1.244       .  A
O6          Co21   1.958       .  S
O7           C10   1.301       .  A
O7         Co215   2.069       .  S
O8            C9   1.273       .  A
O8         Co405   2.019       .  S
C9          C189   1.465       .  S
C10         C176   1.459       .  S
C11         C184   1.444       .  S
C12         C180   1.439       .  S
O13          C26   1.288       .  A
O13         Co21   2.058       .  S
O14          C27   1.283       .  A
O14         Co22   2.019       .  S
O15          C28   1.255       .  A
O15        Co405   1.948       .  S
O16          C29   1.247       .  A
O16        Co215   1.936       .  S
O17          C29   1.261       .  A
O17         Co22   1.974       .  S
O18          C28   1.262       .  A
O18         Co21   1.988       .  S
O19          C26   1.257       .  A
O19         Co24   1.942   1_554  S
O20          C27   1.268       .  A
O20         Co23   1.960       .  S
Co21         O25   2.002       .  S
Co22        O216   1.852       .  S
Co23        O199   1.966       .  S
Co23        O206   1.980       .  S
Co23        O216   2.028       .  S
Co24        O389   2.079       .  S
Co24        O398   1.892       .  S
Co24         O25   1.988   1_556  S
O25        Co404   1.990   1_554  S
O25        Co405   2.001       .  S
C26         C173   1.470       .  S
C27         C160   1.465       .  S
C28         C165   1.441       .  S
C29         C168   1.442       .  S
O30          C38   1.279       .  A
O30        Co623   1.919       .  S
O31          C39   1.262       .  A
O31         Co51   2.002   1_545  S
O32          C40   1.296       .  A
O32        Co243   2.110       .  S
O33          C41   1.270       .  A
O33         Co53   2.046       .  S
O34          C40   1.269       .  A
O34        Co624   1.906       .  S
O35          C41   1.237       .  A
O35         Co50   1.925       .  S
O36          C39   1.266       .  A
O36        Co244   2.028       .  S
O37          C38   1.292       .  A
O37         Co52   2.064       .  S
C38         C153   1.444       .  S
C39         C145   1.468       .  S
C40         C155   1.447       .  S
C41         C147   1.430       .  S
O42          C55   1.281       .  A
O42         Co50   2.061       .  S
O43          C56   1.292       .  A
O43        Co624   2.098       .  S
O44          C57   1.256       .  A
O44         Co52   2.021       .  S
O45          C58   1.251       .  A
O45        Co244   1.945       .  S
O46          C58   1.273       .  A
O46         Co51   2.022   1_545  S
O47          C57   1.240       .  A
O47        Co623   1.965       .  S
O48          C55   1.249       .  A
O48         Co53   1.940       .  S
O49          C56   1.270       .  A
O49        Co243   1.915       .  S
Co50        O603   1.954   1_545  S
Co50        O620   2.023   1_545  S
Co50         O54   2.029       .  S
Co51        O607   1.894       .  S
Co51        O616   1.980       .  S
Co51        O245   1.963   1_565  S
Co52        O414   2.080   1_554  S
Co52        O431   2.015   1_554  S
Co52        O627   2.247       .  S
Co53        O418   2.071   1_554  S
Co53        O427   1.948   1_554  S
Co53         O54   2.059       .  S
O54        Co433   2.030   1_554  S
O54        Co625   2.031   1_544  S
C55         C148   1.449       .  S
C56         C157   1.451       .  S
C57         C158   1.450       .  S
C58         C150   1.428       .  S
O59          C67   1.308       .  A
O59         Co79   2.122   1_554  S
O60          C68   1.254       .  A
O60         Co80   1.979       .  S
O61          C69   1.261       .  A
O61       Co1227   1.960   1_455  S
O62          C70   1.263       .  A
O62         Co82   2.023       .  S
O63          C69   1.279       .  A
O63        Co462   2.038   1_554  S
O64          C70   1.251       .  A
O64        Co270   1.975       .  S
O65          C68   1.267       .  A
O65       Co1228   2.032   1_455  S
O66          C67   1.277       .  A
O66         Co81   1.905       .  S
C67         C143   1.465       .  S
C68         C130   1.454       .  S
C69         C128   1.439       .  S
C70         C141   1.452       .  S
O71          C84   1.294       .  A
O71        Co270   2.066       .  S
O72          C85   1.251       .  A
O72        Co462   1.975   1_554  S
O73          C86   1.250       .  A
O73         Co81   1.971       .  S
O74          C87   1.264       .  A
O74       Co1228   1.968   1_455  S
O75          C87   1.281       .  A
O75         Co80   2.050       .  S
O76          C86   1.267       .  A
O76         Co79   2.023   1_554  S
O77          C84   1.276       .  A
O77         Co82   1.907       .  S
O78          C85   1.266       .  A
O78       Co1227   2.031   1_455  S
Co79        O446   1.926       .  S
Co79        O453   2.099       .  S
Co79         O83   2.107   1_556  S
Co80        O254   1.955       .  S
Co80        O263   2.059       .  S
Co80       O1420   2.058       .  S
Co81       O1207   2.002       .  S
Co81       O1224   2.017       .  S
Co81         O83   1.907       .  S
Co82       O1211   2.026       .  S
Co82       O1220   1.975       .  S
Co82        O274   1.935       .  S
O83       Co1608   2.061       .  S
O83        Co464   2.011   1_554  S
C84         C138   1.435       .  S
C85         C135   1.451       .  S
C86         C136   1.450       .  S
C87         C133   1.453       .  S
C88          H89   1.110       .  S
C88          C94   1.530       .  S
C88          C93   1.534       .  S
C88          C92   1.536       .  S
C90          H91   1.111       .  S
C90          C96   1.551       .  S
C90          C95   1.528       .  S
C90          C97   1.554       .  S
C92          C95   1.368       .  D
C92         C185   1.465       .  S
C93          C96   1.371       .  D
C93         C151   1.450       .  S
C94          C97   1.375       .  D
C94         C132   1.464       .  S
C95         C188   1.466       .  S
C96         C149   1.469       .  S
C97         C134   1.463       .  S
C98          H99   1.112       .  S
C98         C104   1.517       .  S
C98         C103   1.528       .  S
C98         C102   1.527       .  S
C100        H101   1.112       .  S
C100        C106   1.542       .  S
C100        C105   1.540       .  S
C100        C107   1.548       .  S
C102        C105   1.375       .  D
C102        C181   1.464       .  S
C103        C106   1.377       .  D
C103        C146   1.442       .  S
C104        C107   1.376       .  D
C104        C137   1.463       .  S
C105        C177   1.473       .  S
C106        C144   1.478       .  S
C107        C139   1.446       .  S
C108        H109   1.113       .  S
C108        C114   1.528       .  S
C108        C113   1.527       .  S
C108        C112   1.528       .  S
C110        H111   1.110       .  S
C110        C116   1.548       .  S
C110        C115   1.537       .  S
C110        C117   1.546       .  S
C112        C115   1.374       .  D
C112        C164   1.460       .  S
C113        C116   1.379       .  D
C113        C159   1.459       .  S
C114        C117   1.374       .  D
C114        C129   1.450       .  S
C115        C161   1.480       .  S
C116        C156   1.461       .  S
C117        C131   1.466       .  S
C118        H119   1.110       .  S
C118        C124   1.545       .  S
C118        C123   1.528       .  S
C118        C122   1.535       .  S
C120        H121   1.110       .  S
C120        C126   1.558       .  S
C120        C125   1.540       .  S
C120        C127   1.549       .  S
C122        C125   1.362       .  D
C122        C169   1.464       .  S
C123        C126   1.377       .  D
C123        C154   1.463       .  S
C124        C127   1.373       .  D
C124        C140   1.463       .  S
C125        C172   1.482       .  S
C126        C152   1.459       .  S
C127        C142   1.475       .  S
C128        C129   1.208       .  T
C130        C131   1.218       .  T
C132        C133   1.217       .  T
C134        C135   1.216       .  T
C136        C137   1.215       .  T
C138        C139   1.206       .  T
C140        C141   1.216       .  T
C142        C143   1.223       .  T
C144        C145   1.226       .  T
C146        C147   1.206       .  T
C148        C149   1.217       .  T
C150        C151   1.204       .  T
C152        C153   1.212       .  T
C154        C155   1.213       .  T
C156        C157   1.215       .  T
C158        C159   1.215       .  T
C160        C161   1.335       .  D
C160        H162   1.085       .  S
C161        H163   1.086       .  S
C164        C165   1.335       .  D
C164        H166   1.088       .  S
C165        H167   1.085       .  S
C168        C169   1.320       .  D
C168        H170   1.086       .  S
C169        H171   1.089       .  S
C172        C173   1.329       .  D
C172        H174   1.087       .  S
C173        H175   1.086       .  S
C176        C177   1.344       .  D
C176        H178   1.084       .  S
C177        H179   1.087       .  S
C180        C181   1.333       .  D
C180        H182   1.085       .  S
C181        H183   1.088       .  S
C184        C185   1.330       .  D
C184        H186   1.085       .  S
C185        H187   1.089       .  S
C188        C189   1.338       .  D
C188        H190   1.088       .  S
C189        H191   1.086       .  S
O192        C200   1.258       .  A
O192       Co212   1.974       .  S
O193        C201   1.268       .  A
O193       Co213   1.901       .  S
O194        C202   1.279       .  A
O194       Co214   2.033       .  S
O195        C203   1.271       .  A
O195       Co215   1.888       .  S
O196        C202   1.264       .  A
O196       Co213   1.946       .  S
O197        C203   1.293       .  A
O197       Co212   2.056       .  S
O198        C201   1.289       .  A
O198       Co406   2.080       .  S
O199        C200   1.254       .  A
C200        C380   1.445       .  S
C201        C367   1.461       .  S
C202        C375   1.468       .  S
C203        C371   1.449       .  S
O204        C217   1.266       .  A
O204       Co212   1.913       .  S
O205        C218   1.264       .  A
O205       Co213   2.033       .  S
O206        C219   1.268       .  A
O207        C220   1.259       .  A
O207       Co406   1.884       .  S
O208        C220   1.294       .  A
O208       Co213   2.081       .  S
O209        C219   1.261       .  A
O209       Co212   1.974       .  S
O210        C217   1.280       .  A
O210       Co215   2.061       .  S
O211        C218   1.244       .  A
O211       Co214   1.957       .  S
Co212       O216   1.977       .  S
Co213       O407   1.996       .  S
Co214       O390   2.032       .  S
Co214       O397   1.936       .  S
Co214       O407   1.997       .  S
Co215       O216   2.078       .  S
C217        C364   1.449       .  S
C218        C351   1.471       .  S
C219        C356   1.458       .  S
C220        C359   1.448       .  S
O221        C229   1.240       .  A
O221       Co814   1.944       .  S
O222        C230   1.237       .  A
O222       Co242   1.973       .  S
O223        C231   1.304       .  A
O223       Co434   2.101       .  S
O224        C232   1.268       .  A
O224       Co244   2.038       .  S
O225        C231   1.270       .  A
O225       Co815   1.889       .  S
O226        C232   1.252       .  A
O226       Co241   1.981   1_545  S
O227        C230   1.249       .  A
O227       Co435   2.006       .  S
O228        C229   1.266       .  A
O228       Co243   2.040       .  S
C229        C344   1.435       .  S
C230        C336   1.447       .  S
C231        C346   1.441       .  S
C232        C338   1.455       .  S
O233        C246   1.275       .  A
O233       Co241   2.041   1_545  S
O234        C247   1.241       .  A
O234       Co815   1.965       .  S
O235        C248   1.272       .  A
O235       Co243   1.994       .  S
O236        C249   1.294       .  A
O236       Co435   2.067       .  S
O237        C249   1.277       .  A
O237       Co242   1.899       .  S
O238        C248   1.275       .  A
O238       Co814   2.028       .  S
O239        C246   1.251       .  A
O239       Co244   1.952       .  S
O240        C247   1.251       .  A
O240       Co434   1.996       .  S
Co241       O794   1.909       .  S
Co241       O811   1.962       .  S
Co241       O245   1.949   1_565  S
Co242       O798   2.029   1_545  S
Co242       O807   1.979   1_545  S
Co242       O436   1.958   1_545  S
Co243       O818   2.034       .  S
Co244       O245   2.103       .  S
O245       Co816   2.252   1_545  S
C246        C339   1.439       .  S
C247        C348   1.435       .  S
C248        C349   1.456       .  S
C249        C341   1.431       .  S
O250        C258   1.291       .  A
O250       Co270   2.045       .  S
O251        C259   1.293       .  A
O251       Co271   2.099       .  S
O252        C260   1.275       .  A
O252      Co1418   2.032       .  S
O253        C261   1.278       .  A
O253       Co273   2.046       .  S
O254        C260   1.258       .  A
O255        C261   1.254       .  A
O255       Co461   1.952       .  S
O256        C259   1.266       .  A
O256      Co1419   1.909       .  S
O257        C258   1.278       .  A
O257       Co272   1.895       .  S
C258        C334   1.415       .  S
C259        C321   1.445       .  S
C260        C319   1.435       .  S
C261        C332   1.445       .  S
O262        C275   1.275       .  A
O262       Co461   2.060       .  S
O263        C276   1.274       .  A
O264        C277   1.263       .  A
O264       Co272   2.023       .  S
O265        C278   1.287       .  A
O265      Co1419   2.079       .  S
O266        C278   1.271       .  A
O266       Co271   1.920       .  S
O267        C277   1.250       .  A
O267       Co270   1.978       .  S
O268        C275   1.245       .  A
O268       Co273   1.942       .  S
O269        C276   1.249       .  A
O269      Co1418   1.956       .  S
Co270       O274   2.108       .  S
Co271       O445   2.044       .  S
Co271       O454   1.977       .  S
Co271      O1611   2.032   1_455  S
Co272      O1398   1.991       .  S
Co272      O1415   2.014       .  S
Co272       O274   1.944       .  S
Co273      O1402   2.035       .  S
Co273      O1411   1.958       .  S
Co273       O465   2.043       .  S
O274      Co1226   2.031       .  S
C275        C329   1.451       .  S
C276        C326   1.459       .  S
C277        C327   1.456       .  S
C278        C324   1.444       .  S
C279        H280   1.112       .  S
C279        C285   1.537       .  S
C279        C284   1.543       .  S
C279        C283   1.530       .  S
C281        H282   1.109       .  S
C281        C287   1.531       .  S
C281        C286   1.541       .  S
C281        C288   1.535       .  S
C283        C286   1.368       .  D
C283        C376   1.467       .  S
C284        C287   1.371       .  D
C284        C342   1.447       .  S
C285        C288   1.378       .  D
C285        C323   1.452       .  S
C286        C379   1.468       .  S
C287        C340   1.460       .  S
C288        C325   1.469       .  S
C289        H290   1.110       .  S
C289        C295   1.542       .  S
C289        C294   1.531       .  S
C289        C293   1.534       .  S
C291        H292   1.106       .  S
C291        C297   1.537       .  S
C291        C296   1.541       .  S
C291        C298   1.528       .  S
C293        C296   1.375       .  D
C293        C372   1.463       .  S
C294        C297   1.381       .  D
C294        C337   1.463       .  S
C295        C298   1.377       .  D
C295        C328   1.465       .  S
C296        C368   1.487       .  S
C297        C335   1.455       .  S
C298        C330   1.461       .  S
C299        H300   1.112       .  S
C299        C305   1.541       .  S
C299        C304   1.537       .  S
C299        C303   1.529       .  S
C301        H302   1.112       .  S
C301        C307   1.540       .  S
C301        C306   1.544       .  S
C301        C308   1.536       .  S
C303        C306   1.369       .  D
C303        C355   1.462       .  S
C304        C307   1.376       .  D
C304        C350   1.466       .  S
C305        C308   1.368       .  D
C305        C320   1.449       .  S
C306        C352   1.486       .  S
C307        C347   1.444       .  S
C308        C322   1.457       .  S
C309        H310   1.112       .  S
C309        C315   1.539       .  S
C309        C314   1.539       .  S
C309        C313   1.528       .  S
C311        H312   1.111       .  S
C311        C317   1.525       .  S
C311        C316   1.532       .  S
C311        C318   1.529       .  S
C313        C316   1.362       .  D
C313        C360   1.446       .  S
C314        C317   1.378       .  D
C314        C345   1.450       .  S
C315        C318   1.367       .  D
C315        C331   1.462       .  S
C316        C363   1.473       .  S
C317        C343   1.451       .  S
C318        C333   1.433       .  S
C319        C320   1.206       .  T
C321        C322   1.212       .  T
C323        C324   1.211       .  T
C325        C326   1.221       .  T
C327        C328   1.219       .  T
C329        C330   1.217       .  T
C331        C332   1.213       .  T
C333        C334   1.195       .  T
C335        C336   1.213       .  T
C337        C338   1.218       .  T
C339        C340   1.211       .  T
C341        C342   1.204       .  T
C343        C344   1.209       .  T
C345        C346   1.209       .  T
C347        C348   1.206       .  T
C349        C350   1.218       .  T
C351        C352   1.334       .  D
C351        H353   1.088       .  S
C352        H354   1.087       .  S
C355        C356   1.340       .  D
C355        H357   1.087       .  S
C356        H358   1.087       .  S
C359        C360   1.326       .  D
C359        H361   1.088       .  S
C360        H362   1.087       .  S
C363        C364   1.331       .  D
C363        H365   1.087       .  S
C364        H366   1.086       .  S
C367        C368   1.339       .  D
C367        H369   1.080       .  S
C368        H370   1.086       .  S
C371        C372   1.338       .  D
C371        H373   1.084       .  S
C372        H374   1.086       .  S
C375        C376   1.342       .  D
C375        H377   1.086       .  S
C376        H378   1.087       .  S
C379        C380   1.331       .  D
C379        H381   1.088       .  S
C380        H382   1.085       .  S
O383        C391   1.258       .  A
O383       Co403   1.939       .  S
O384        C392   1.270       .  A
O384       Co404   1.882       .  S
O385        C393   1.277       .  A
O385       Co405   2.027   1_556  S
O386        C394   1.255       .  A
O386       Co406   1.990       .  S
O387        C393   1.270       .  A
O387       Co404   1.968       .  S
O388        C394   1.253       .  A
O388       Co403   1.962       .  S
O389        C392   1.289       .  A
O390        C391   1.274       .  A
C391        C571   1.465       .  S
C392        C558   1.450       .  S
C393        C566   1.475       .  S
C394        C562   1.458       .  S
O395        C408   1.279       .  A
O395       Co403   2.023       .  S
O396        C409   1.260       .  A
O396       Co404   1.979       .  S
O397        C410   1.247       .  A
O398        C411   1.258       .  A
O399        C411   1.289       .  A
O399       Co404   2.095       .  S
O400        C410   1.271       .  A
O400       Co403   2.010       .  S
O401        C408   1.261       .  A
O401       Co406   1.959       .  S
O402        C409   1.251       .  A
O402       Co405   1.949   1_556  S
Co403       O407   2.009       .  S
Co406       O407   1.985       .  S
C408        C555   1.465       .  S
C409        C542   1.436       .  S
C410        C547   1.441       .  S
C411        C550   1.453       .  S
O412        C420   1.277       .  A
O412      Co1005   1.915       .  S
O413        C421   1.261       .  A
O413       Co433   1.976       .  S
O414        C422   1.295       .  A
O415        C423   1.255       .  A
O415       Co435   2.001       .  S
O416        C422   1.273       .  A
O416      Co1006   1.908       .  S
O417        C423   1.242       .  A
O417       Co432   1.970       .  S
O418        C421   1.283       .  A
O419        C420   1.297       .  A
O419       Co434   2.074       .  S
C420        C535   1.445       .  S
C421        C527   1.473       .  S
C422        C537   1.443       .  S
C423        C529   1.445       .  S
O424        C437   1.269       .  A
O424       Co432   1.882       .  S
O425        C438   1.239       .  A
O425      Co1006   1.963       .  S
O426        C439   1.261       .  A
O426       Co434   2.040       .  S
O427        C440   1.242       .  A
O428        C440   1.270       .  A
O428       Co433   2.047       .  S
O429        C439   1.240       .  A
O429      Co1005   1.965       .  S
O430        C437   1.291       .  A
O430       Co435   2.072       .  S
O431        C438   1.255       .  A
Co432       O985   2.015   1_545  S
Co432      O1002   1.973   1_545  S
Co432       O436   1.985   1_545  S
Co433       O989   1.909   1_545  S
Co433       O998   2.077   1_545  S
Co434      O1009   2.259       .  S
Co435       O436   2.215   1_545  S
O436      Co1007   2.099       .  S
C437        C530   1.426       .  S
C438        C539   1.444       .  S
C439        C540   1.458       .  S
C440        C532   1.444       .  S
O441        C449   1.254       .  A
O441       Co461   1.983       .  S
O442        C450   1.276       .  A
O442       Co462   2.058       .  S
O443        C451   1.252       .  A
O443      Co1609   1.964   1_455  S
O444        C452   1.290       .  A
O444       Co464   2.059       .  S
O445        C451   1.271       .  A
O446        C452   1.278       .  A
O447        C450   1.249       .  A
O447      Co1610   1.951   1_455  S
O448        C449   1.265       .  A
O448       Co463   2.031       .  S
C449        C525   1.458       .  S
C450        C512   1.454       .  S
C451        C510   1.452       .  S
C452        C523   1.447       .  S
O453        C466   1.295       .  A
O454        C467   1.266       .  A
O455        C468   1.262       .  A
O455       Co463   1.971       .  S
O456        C469   1.275       .  A
O456      Co1610   2.037   1_455  S
O457        C469   1.253       .  A
O457       Co462   1.949       .  S
O458        C468   1.280       .  A
O458       Co461   2.050       .  S
O459        C466   1.269       .  A
O459       Co464   1.924       .  S
O460        C467   1.274       .  A
O460      Co1609   2.023   1_455  S
Co461       O465   2.066       .  S
Co462      O1229   2.049       .  S
Co463      O1589   2.085       .  S
Co463      O1606   1.907       .  S
Co463       O465   2.026       .  S
Co464      O1593   2.006       .  S
Co464      O1602   2.003       .  S
O465      Co1417   2.043       .  S
C466        C520   1.453       .  S
C467        C517   1.440       .  S
C468        C518   1.454       .  S
C469        C515   1.436       .  S
C470        H471   1.111       .  S
C470        C476   1.553       .  S
C470        C475   1.546       .  S
C470        C474   1.535       .  S
C472        H473   1.112       .  S
C472        C478   1.532       .  S
C472        C477   1.541       .  S
C472        C479   1.523       .  S
C474        C477   1.376       .  D
C474        C567   1.489       .  S
C475        C478   1.366       .  D
C475        C533   1.463       .  S
C476        C479   1.368       .  D
C476        C514   1.449       .  S
C477        C570   1.468       .  S
C478        C531   1.440       .  S
C479        C516   1.453       .  S
C480        H481   1.113       .  S
C480        C486   1.529       .  S
C480        C485   1.543       .  S
C480        C484   1.522       .  S
C482        H483   1.109       .  S
C482        C488   1.539       .  S
C482        C487   1.539       .  S
C482        C489   1.548       .  S
C484        C487   1.366       .  D
C484        C563   1.461       .  S
C485        C488   1.388       .  D
C485        C528   1.451       .  S
C486        C489   1.375       .  D
C486        C519   1.464       .  S
C487        C559   1.468       .  S
C488        C526   1.482       .  S
C489        C521   1.463       .  S
C490        H491   1.113       .  S
C490        C496   1.536       .  S
C490        C495   1.533       .  S
C490        C494   1.531       .  S
C492        H493   1.113       .  S
C492        C498   1.540       .  S
C492        C497   1.521       .  S
C492        C499   1.537       .  S
C494        C497   1.367       .  D
C494        C546   1.452       .  S
C495        C498   1.382       .  D
C495        C541   1.467       .  S
C496        C499   1.381       .  D
C496        C511   1.461       .  S
C497        C543   1.464       .  S
C498        C538   1.452       .  S
C499        C513   1.464       .  S
C500        H501   1.112       .  S
C500        C506   1.537       .  S
C500        C505   1.537       .  S
C500        C504   1.532       .  S
C502        H503   1.110       .  S
C502        C508   1.543       .  S
C502        C507   1.540       .  S
C502        C509   1.548       .  S
C504        C507   1.368       .  D
C504        C551   1.464       .  S
C505        C508   1.371       .  D
C505        C536   1.458       .  S
C506        C509   1.377       .  D
C506        C522   1.458       .  S
C507        C554   1.476       .  S
C508        C534   1.458       .  S
C509        C524   1.469       .  S
C510        C511   1.217       .  T
C512        C513   1.218       .  T
C514        C515   1.207       .  T
C516        C517   1.209       .  T
C518        C519   1.217       .  T
C520        C521   1.216       .  T
C522        C523   1.213       .  T
C524        C525   1.220       .  T
C526        C527   1.228       .  T
C528        C529   1.212       .  T
C530        C531   1.201       .  T
C532        C533   1.214       .  T
C534        C535   1.212       .  T
C536        C537   1.211       .  T
C538        C539   1.211       .  T
C540        C541   1.220       .  T
C542        C543   1.335       .  D
C542        H544   1.082       .  S
C543        H545   1.088       .  S
C546        C547   1.323       .  D
C546        H548   1.088       .  S
C547        H549   1.089       .  S
C550        C551   1.334       .  D
C550        H552   1.085       .  S
C551        H553   1.087       .  S
C554        C555   1.335       .  D
C554        H556   1.086       .  S
C555        H557   1.085       .  S
C558        C559   1.332       .  D
C558        H560   1.084       .  S
C559        H561   1.087       .  S
C562        C563   1.336       .  D
C562        H564   1.087       .  S
C563        H565   1.087       .  S
C566        C567   1.344       .  D
C566        H568   1.086       .  S
C567        H569   1.086       .  S
C570        C571   1.344       .  D
C570        H572   1.087       .  S
C571        H573   1.086       .  S
O574        C582   1.259       .  A
O574       Co594   1.947       .  S
O575        C583   1.277       .  A
O575       Co595   1.903       .  S
O576        C584   1.277       .  A
O576       Co596   2.030       .  S
O577        C585   1.238       .  A
O577       Co597   1.921   1_554  S
O578        C584   1.266       .  A
O578       Co595   1.956       .  S
O579        C585   1.261       .  A
O579       Co594   1.991       .  S
O580        C583   1.285       .  A
O580       Co788   2.046       .  S
O581        C582   1.271       .  A
O581       Co978   2.023       .  S
C582        C762   1.464       .  S
C583        C749   1.453       .  S
C584        C757   1.468       .  S
C585        C753   1.434       .  S
O586        C599   1.279       .  A
O586       Co594   2.021       .  S
O587        C600   1.271       .  A
O587       Co595   2.027       .  S
O588        C601   1.251       .  A
O588       Co978   1.938       .  S
O589        C602   1.228       .  A
O589       Co788   1.887       .  S
O590        C602   1.266       .  A
O590       Co595   2.032       .  S
O591        C601   1.266       .  A
O591       Co594   2.008       .  S
O592        C599   1.255       .  A
O592       Co597   1.943   1_554  S
O593        C600   1.248       .  A
O593       Co596   1.951       .  S
Co594       O598   2.042       .  S
Co595       O789   1.962       .  S
Co596       O772   2.019       .  S
Co596       O779   1.938       .  S
Co596       O789   2.009       .  S
Co597       O962   2.051       .  S
Co597       O971   1.913       .  S
Co597       O598   2.030   1_556  S
O598       Co977   1.961   1_554  S
O598       Co978   2.008       .  S
C599        C746   1.460       .  S
C600        C733   1.460       .  S
C601        C738   1.447       .  S
C602        C741   1.431       .  S
O603        C611   1.246       .  A
O604        C612   1.264       .  A
O604       Co624   1.984       .  S
O605        C613   1.305       .  A
O605       Co816   2.112       .  S
O606        C614   1.265       .  A
O606       Co626   2.030       .  S
O607        C613   1.271       .  A
O608        C614   1.253       .  A
O608       Co623   1.988       .  S
O609        C612   1.279       .  A
O609       Co817   2.054       .  S
O610        C611   1.271       .  A
O610       Co625   2.043   1_554  S
C611        C726   1.444       .  S
C612        C718   1.467       .  S
C613        C728   1.453       .  S
C614        C720   1.459       .  S
O615        C628   1.281       .  A
O615       Co623   2.049       .  S
O616        C629   1.246       .  A
O617        C630   1.272       .  A
O617       Co625   1.996   1_554  S
O618        C631   1.243       .  A
O618       Co817   1.945       .  S
O619        C631   1.267       .  A
O619       Co624   2.029       .  S
O620        C630   1.273       .  A
O621        C628   1.248       .  A
O621       Co626   1.940       .  S
O622        C629   1.254       .  A
O622       Co816   2.006       .  S
Co623       O627   1.962       .  S
Co624       O818   2.027       .  S
Co625       O987   2.096       .  S
Co625      O1004   1.917       .  S
Co626       O991   2.033   1_554  S
Co626      O1000   1.933   1_554  S
Co626       O627   2.111       .  S
O627      Co1006   1.964   1_554  S
C628        C721   1.443       .  S
C629        C730   1.452       .  S
C630        C731   1.457       .  S
C631        C723   1.432       .  S
O632        C640   1.249       .  A
O632       Co652   1.969   1_554  S
O633        C641   1.254       .  A
O633       Co653   1.981       .  S
O634        C642   1.262       .  A
O634      Co1800   1.959   1_455  S
O635        C643   1.295       .  A
O635       Co655   2.097       .  S
O636        C642   1.279       .  A
O636      Co1035   2.038   1_554  S
O637        C643   1.273       .  A
O637       Co843   1.913       .  S
O638        C641   1.270       .  A
O638      Co1801   2.044   1_455  S
O639        C640   1.265       .  A
O639       Co654   2.039       .  S
C640        C716   1.452       .  S
C641        C703   1.463       .  S
C642        C701   1.438       .  S
C643        C714   1.452       .  S
O644        C657   1.298       .  A
O644       Co843   2.124       .  S
O645        C658   1.254       .  A
O645      Co1035   1.980   1_554  S
O646        C659   1.263       .  A
O646       Co654   1.970       .  S
O647        C660   1.263       .  A
O647      Co1801   1.962   1_455  S
O648        C660   1.278       .  A
O648       Co653   2.035       .  S
O649        C659   1.284       .  A
O649       Co652   2.065   1_554  S
O650        C657   1.263       .  A
O650       Co655   1.909       .  S
O651        C658   1.270       .  A
O651      Co1800   2.046   1_455  S
Co652      O1019   1.959       .  S
Co652      O1026   2.024       .  S
Co652       O656   2.056       .  S
Co653       O827   1.949       .  S
Co653       O836   2.057       .  S
Co653      O1993   2.054       .  S
Co654      O1780   2.070       .  S
Co654      O1797   1.905       .  S
Co654       O656   2.020   1_554  S
Co655      O1784   2.025       .  S
Co655      O1793   1.971       .  S
Co655       O847   2.021       .  S
O656      Co2181   2.045   1_556  S
O656      Co1037   2.041       .  S
C657        C711   1.457       .  S
C658        C708   1.464       .  S
C659        C709   1.462       .  S
C660        C706   1.439       .  S
C661        H662   1.112       .  S
C661        C667   1.534       .  S
C661        C666   1.536       .  S
C661        C665   1.537       .  S
C663        H664   1.111       .  S
C663        C669   1.550       .  S
C663        C668   1.534       .  S
C663        C670   1.550       .  S
C665        C668   1.377       .  D
C665        C758   1.477       .  S
C666        C669   1.366       .  D
C666        C724   1.454       .  S
C667        C670   1.376       .  D
C667        C705   1.449       .  S
C668        C761   1.474       .  S
C669        C722   1.464       .  S
C670        C707   1.475       .  S
C671        H672   1.112       .  S
C671        C677   1.537       .  S
C671        C676   1.537       .  S
C671        C675   1.521       .  S
C673        H674   1.111       .  S
C673        C679   1.549       .  S
C673        C678   1.542       .  S
C673        C680   1.549       .  S
C675        C678   1.360       .  D
C675        C754   1.450       .  S
C676        C679   1.390       .  D
C676        C719   1.465       .  S
C677        C680   1.376       .  D
C677        C710   1.472       .  S
C678        C750   1.473       .  S
C679        C717   1.475       .  S
C680        C712   1.467       .  S
C681        H682   1.113       .  S
C681        C687   1.537       .  S
C681        C686   1.533       .  S
C681        C685   1.530       .  S
C683        H684   1.112       .  S
C683        C689   1.551       .  S
C683        C688   1.536       .  S
C683        C690   1.547       .  S
C685        C688   1.367       .  D
C685        C737   1.468       .  S
C686        C689   1.379       .  D
C686        C732   1.467       .  S
C687        C690   1.376       .  D
C687        C702   1.449       .  S
C688        C734   1.469       .  S
C689        C729   1.461       .  S
C690        C704   1.475       .  S
C691        H692   1.112       .  S
C691        C697   1.535       .  S
C691        C696   1.532       .  S
C691        C695   1.532       .  S
C693        H694   1.110       .  S
C693        C699   1.546       .  S
C693        C698   1.531       .  S
C693        C700   1.552       .  S
C695        C698   1.361       .  D
C695        C742   1.450       .  S
C696        C699   1.381       .  D
C696        C727   1.464       .  S
C697        C700   1.373       .  D
C697        C713   1.463       .  S
C698        C745   1.470       .  S
C699        C725   1.461       .  S
C700        C715   1.465       .  S
C701        C702   1.208       .  T
C703        C704   1.223       .  T
C705        C706   1.208       .  T
C707        C708   1.223       .  T
C709        C710   1.222       .  T
C711        C712   1.219       .  T
C713        C714   1.216       .  T
C715        C716   1.217       .  T
C717        C718   1.225       .  T
C719        C720   1.220       .  T
C721        C722   1.215       .  T
C723        C724   1.207       .  T
C725        C726   1.214       .  T
C727        C728   1.216       .  T
C729        C730   1.216       .  T
C731        C732   1.219       .  T
C733        C734   1.328       .  D
C733        H735   1.088       .  S
C734        H736   1.087       .  S
C737        C738   1.343       .  D
C737        H739   1.088       .  S
C738        H740   1.082       .  S
C741        C742   1.316       .  D
C741        H743   1.088       .  S
C742        H744   1.088       .  S
C745        C746   1.330       .  D
C745        H747   1.087       .  S
C746        H748   1.086       .  S
C749        C750   1.324       .  D
C749        H751   1.086       .  S
C750        H752   1.088       .  S
C753        C754   1.322       .  D
C753        H755   1.087       .  S
C754        H756   1.089       .  S
C757        C758   1.344       .  D
C757        H759   1.087       .  S
C758        H760   1.086       .  S
C761        C762   1.344       .  D
C761        H763   1.087       .  S
C762        H764   1.086       .  S
O765        C773   1.254       .  A
O765       Co785   1.936       .  S
O766        C774   1.273       .  A
O766       Co786   1.885       .  S
O767        C775   1.278       .  A
O767       Co787   2.034       .  S
O768        C776   1.239       .  A
O768       Co788   1.934       .  S
O769        C775   1.263       .  A
O769       Co786   1.950       .  S
O770        C776   1.257       .  A
O770       Co785   1.980       .  S
O771        C774   1.282       .  A
O771       Co979   2.054       .  S
O772        C773   1.269       .  A
C773        C953   1.454       .  S
C774        C940   1.440       .  S
C775        C948   1.466       .  S
C776        C944   1.432       .  S
O777        C790   1.280       .  A
O777       Co785   2.030       .  S
O778        C791   1.266       .  A
O778       Co786   2.031       .  S
O779        C792   1.254       .  A
O780        C793   1.258       .  A
O780       Co979   1.886       .  S
O781        C793   1.291       .  A
O781       Co786   2.082       .  S
O782        C792   1.264       .  A
O782       Co785   1.994       .  S
O783        C790   1.253       .  A
O783       Co788   1.941       .  S
O784        C791   1.244       .  A
O784       Co787   1.954       .  S
Co785       O789   2.037       .  S
Co786       O980   1.994       .  S
Co787       O963   2.024       .  S
Co787       O970   1.930       .  S
Co787       O980   1.988       .  S
Co788       O789   2.019       .  S
C790        C937   1.465       .  S
C791        C924   1.465       .  S
C792        C929   1.435       .  S
C793        C932   1.448       .  S
O794        C802   1.276       .  A
O795        C803   1.259       .  A
O795       Co815   1.999       .  S
O796        C804   1.259       .  A
O796      Co1007   1.963       .  S
O797        C805   1.274       .  A
O797       Co817   2.058       .  S
O798        C804   1.275       .  A
O799        C805   1.238       .  A
O799       Co814   1.926       .  S
O800        C803   1.266       .  A
O800      Co1008   2.031       .  S
O801        C802   1.296       .  A
O801       Co816   2.073       .  S
C802        C917   1.439       .  S
C803        C909   1.467       .  S
C804        C919   1.436       .  S
C805        C911   1.438       .  S
O806        C819   1.278       .  A
O806       Co814   2.056       .  S
O807        C820   1.257       .  A
O808        C821   1.261       .  A
O808       Co816   2.041       .  S
O809        C822   1.246       .  A
O809      Co1008   1.932       .  S
O810        C822   1.270       .  A
O810       Co815   2.015       .  S
O811        C821   1.237       .  A
O812        C819   1.246       .  A
O812       Co817   1.935       .  S
O813        C820   1.266       .  A
O813      Co1007   2.022       .  S
Co814       O818   2.023       .  S
Co815      O1009   1.950       .  S
Co817       O818   2.051       .  S
C819        C912   1.440       .  S
C820        C921   1.448       .  S
C821        C922   1.456       .  S
C822        C914   1.420       .  S
O823        C831   1.272       .  A
O823       Co843   1.994       .  S
O824        C832   1.291       .  A
O824       Co844   2.048       .  S
O825        C833   1.277       .  A
O825      Co1991   2.042       .  S
O826        C834   1.262       .  A
O826       Co846   1.967       .  S
O827        C833   1.255       .  A
O828        C834   1.282       .  A
O828      Co1034   2.059       .  S
O829        C832   1.280       .  A
O829      Co1992   1.908       .  S
O830        C831   1.274       .  A
O830       Co845   2.029       .  S
C831        C907   1.456       .  S
C832        C894   1.427       .  S
C833        C892   1.437       .  S
C834        C905   1.457       .  S
O835        C848   1.255       .  A
O835      Co1034   1.973       .  S
O836        C849   1.274       .  A
O837        C850   1.242       .  A
O837       Co845   1.945       .  S
O838        C851   1.264       .  A
O838      Co1992   2.025       .  S
O839        C851   1.251       .  A
O839       Co844   1.983       .  S
O840        C850   1.271       .  A
O840       Co843   2.048       .  S
O841        C848   1.267       .  A
O841       Co846   2.029       .  S
O842        C849   1.242       .  A
O842      Co1991   1.937       .  S
Co843       O847   2.044       .  S
Co844      O1018   1.978       .  S
Co844      O1027   2.052       .  S
Co844      O2184   2.113   1_455  S
Co845      O1971   2.049       .  S
Co845      O1988   1.943       .  S
Co845       O847   2.026       .  S
Co846      O1975   1.907       .  S
Co846      O1984   2.069       .  S
Co846      O1038   2.016       .  S
O847      Co1799   2.056       .  S
C848        C902   1.446       .  S
C849        C899   1.441       .  S
C850        C900   1.442       .  S
C851        C897   1.460       .  S
C852        H853   1.112       .  S
C852        C858   1.541       .  S
C852        C857   1.540       .  S
C852        C856   1.538       .  S
C854        H855   1.112       .  S
C854        C860   1.533       .  S
C854        C859   1.531       .  S
C854        C861   1.531       .  S
C856        C859   1.375       .  D
C856        C949   1.474       .  S
C857        C860   1.366       .  D
C857        C915   1.441       .  S
C858        C861   1.380       .  D
C858        C896   1.469       .  S
C859        C952   1.469       .  S
C860        C913   1.463       .  S
C861        C898   1.450       .  S
C862        H863   1.113       .  S
C862        C868   1.523       .  S
C862        C867   1.533       .  S
C862        C866   1.512       .  S
C864        H865   1.111       .  S
C864        C870   1.541       .  S
C864        C869   1.544       .  S
C864        C871   1.547       .  S
C866        C869   1.359       .  D
C866        C945   1.450       .  S
C867        C870   1.386       .  D
C867        C910   1.448       .  S
C868        C871   1.370       .  D
C868        C901   1.458       .  S
C869        C941   1.455       .  S
C870        C908   1.476       .  S
C871        C903   1.458       .  S
C872        H873   1.113       .  S
C872        C878   1.535       .  S
C872        C877   1.533       .  S
C872        C876   1.525       .  S
C874        H875   1.112       .  S
C874        C880   1.541       .  S
C874        C879   1.536       .  S
C874        C881   1.535       .  S
C876        C879   1.367       .  D
C876        C928   1.455       .  S
C877        C880   1.382       .  D
C877        C923   1.462       .  S
C878        C881   1.368       .  D
C878        C893   1.454       .  S
C879        C925   1.477       .  S
C880        C920   1.455       .  S
C881        C895   1.443       .  S
C882        H883   1.113       .  S
C882        C888   1.534       .  S
C882        C887   1.533       .  S
C882        C886   1.525       .  S
C884        H885   1.110       .  S
C884        C890   1.542       .  S
C884        C889   1.542       .  S
C884        C891   1.549       .  S
C886        C889   1.363       .  D
C886        C933   1.460       .  S
C887        C890   1.371       .  D
C887        C918   1.452       .  S
C888        C891   1.381       .  D
C888        C904   1.465       .  S
C889        C936   1.474       .  S
C890        C916   1.453       .  S
C891        C906   1.464       .  S
C892        C893   1.208       .  T
C894        C895   1.202       .  T
C896        C897   1.221       .  T
C898        C899   1.211       .  T
C900        C901   1.213       .  T
C902        C903   1.213       .  T
C904        C905   1.219       .  T
C906        C907   1.218       .  T
C908        C909   1.225       .  T
C910        C911   1.210       .  T
C912        C913   1.212       .  T
C914        C915   1.200       .  T
C916        C917   1.209       .  T
C918        C919   1.207       .  T
C920        C921   1.214       .  T
C922        C923   1.218       .  T
C924        C925   1.332       .  D
C924        H926   1.088       .  S
C925        H927   1.087       .  S
C928        C929   1.337       .  D
C928        H930   1.088       .  S
C929        H931   1.083       .  S
C932        C933   1.329       .  D
C932        H934   1.086       .  S
C933        H935   1.087       .  S
C936        C937   1.332       .  D
C936        H938   1.086       .  S
C937        H939   1.086       .  S
C940        C941   1.322       .  D
C940        H942   1.086       .  S
C941        H943   1.089       .  S
C944        C945   1.325       .  D
C944        H946   1.086       .  S
C945        H947   1.089       .  S
C948        C949   1.345       .  D
C948        H950   1.086       .  S
C949        H951   1.087       .  S
C952        C953   1.344       .  D
C952        H954   1.087       .  S
C953        H955   1.083       .  S
O956        C964   1.262       .  A
O956       Co976   1.943       .  S
O957        C965   1.273       .  A
O957       Co977   1.897       .  S
O958        C966   1.278       .  A
O958       Co978   2.038   1_556  S
O959        C967   1.254       .  A
O959       Co979   1.999       .  S
O960        C966   1.264       .  A
O960       Co977   1.956       .  S
O961        C967   1.252       .  A
O961       Co976   1.964       .  S
O962        C965   1.288       .  A
O963        C964   1.274       .  A
C964       C1144   1.462       .  S
C965       C1131   1.449       .  S
C966       C1139   1.472       .  S
C967       C1135   1.465       .  S
O968        C981   1.282       .  A
O968       Co976   2.030       .  S
O969        C982   1.267       .  A
O969       Co977   2.011       .  S
O970        C983   1.247       .  A
O971        C984   1.229       .  A
O972        C984   1.267       .  A
O972       Co977   2.039       .  S
O973        C983   1.264       .  A
O973       Co976   1.991       .  S
O974        C981   1.259       .  A
O974       Co979   1.943       .  S
O975        C982   1.245       .  A
O975       Co978   1.946   1_556  S
Co976       O980   2.007       .  S
Co979       O980   1.980       .  S
C981       C1128   1.459       .  S
C982       C1115   1.449       .  S
C983       C1120   1.425       .  S
C984       C1123   1.446       .  S
O985        C993   1.272       .  A
O986        C994   1.253       .  A
O986      Co1006   1.980       .  S
O987        C995   1.290       .  A
O988        C996   1.266       .  A
O988      Co1008   2.029       .  S
O989        C995   1.269       .  A
O990        C996   1.248       .  A
O990      Co1005   1.978       .  S
O991        C994   1.266       .  A
O992        C993   1.256       .  A
O992      Co1007   1.944       .  S
C993       C1108   1.416       .  S
C994       C1100   1.458       .  S
C995       C1110   1.442       .  S
C996       C1102   1.447       .  S
O997       C1010   1.278       .  A
O997      Co1005   2.049       .  S
O998       C1011   1.288       .  A
O999       C1012   1.267       .  A
O999      Co1007   2.035       .  S
O1000      C1013   1.247       .  A
O1001      C1013   1.272       .  A
O1001     Co1006   2.025       .  S
O1002      C1012   1.257       .  A
O1003      C1010   1.246       .  A
O1003     Co1008   1.938       .  S
O1004      C1011   1.273       .  A
Co1005     O1009   1.941       .  S
Co1008     O1009   2.103       .  S
C1010      C1103   1.442       .  S
C1011      C1112   1.445       .  S
C1012      C1113   1.458       .  S
C1013      C1105   1.422       .  S
O1014      C1022   1.270       .  A
O1014     Co1034   2.032       .  S
O1015      C1023   1.273       .  A
O1015     Co1035   2.056       .  S
O1016      C1024   1.259       .  A
O1016     Co2182   2.017   1_455  S
O1017      C1025   1.276       .  A
O1017     Co1037   2.045       .  S
O1018      C1024   1.250       .  A
O1019      C1025   1.257       .  A
O1020      C1023   1.243       .  A
O1020     Co2183   1.940       .  S
O1021      C1022   1.246       .  A
O1021     Co1036   1.942       .  S
C1022      C1098   1.429       .  S
C1023      C1085   1.444       .  S
C1024      C1083   1.451       .  S
C1025      C1096   1.447       .  S
O1026      C1039   1.268       .  A
O1027      C1040   1.291       .  A
O1028      C1041   1.276       .  A
O1028     Co1036   2.038       .  S
O1029      C1042   1.278       .  A
O1029     Co2183   2.048       .  S
O1030      C1042   1.255       .  A
O1030     Co1035   1.947       .  S
O1031      C1041   1.261       .  A
O1031     Co1034   1.968       .  S
O1032      C1039   1.248       .  A
O1032     Co1037   1.945       .  S
O1033      C1040   1.281       .  A
O1033     Co2182   1.913   1_455  S
Co1034     O1038   2.055       .  S
Co1035     O1802   2.056       .  S
Co1036     O2162   1.951       .  S
Co1036     O2179   2.042       .  S
Co1036     O1038   2.025       .  S
Co1037     O2166   2.048       .  S
Co1037     O2175   1.958       .  S
O1038     Co1990   2.036       .  S
C1039      C1093   1.427       .  S
C1040      C1090   1.434       .  S
C1041      C1091   1.448       .  S
C1042      C1088   1.438       .  S
C1043      H1044   1.111       .  S
C1043      C1049   1.536       .  S
C1043      C1048   1.540       .  S
C1043      C1047   1.535       .  S
C1045      H1046   1.112       .  S
C1045      C1051   1.541       .  S
C1045      C1050   1.536       .  S
C1045      C1052   1.539       .  S
C1047      C1050   1.376       .  D
C1047      C1140   1.480       .  S
C1048      C1051   1.366       .  D
C1048      C1106   1.442       .  S
C1049      C1052   1.368       .  D
C1049      C1087   1.456       .  S
C1050      C1143   1.466       .  S
C1051      C1104   1.466       .  S
C1052      C1089   1.448       .  S
C1053      H1054   1.112       .  S
C1053      C1059   1.541       .  S
C1053      C1058   1.548       .  S
C1053      C1057   1.524       .  S
C1055      H1056   1.110       .  S
C1055      C1061   1.525       .  S
C1055      C1060   1.543       .  S
C1055      C1062   1.521       .  S
C1057      C1060   1.364       .  D
C1057      C1136   1.462       .  S
C1058      C1061   1.387       .  D
C1058      C1101   1.452       .  S
C1059      C1062   1.368       .  D
C1059      C1092   1.459       .  S
C1060      C1132   1.472       .  S
C1061      C1099   1.463       .  S
C1062      C1094   1.440       .  S
C1063      H1064   1.113       .  S
C1063      C1069   1.544       .  S
C1063      C1068   1.535       .  S
C1063      C1067   1.526       .  S
C1065      H1066   1.113       .  S
C1065      C1071   1.537       .  S
C1065      C1070   1.523       .  S
C1065      C1072   1.525       .  S
C1067      C1070   1.363       .  D
C1067      C1119   1.452       .  S
C1068      C1071   1.383       .  D
C1068      C1114   1.466       .  S
C1069      C1072   1.379       .  D
C1069      C1084   1.459       .  S
C1070      C1116   1.464       .  S
C1071      C1111   1.451       .  S
C1072      C1086   1.455       .  S
C1073      H1074   1.112       .  S
C1073      C1079   1.550       .  S
C1073      C1078   1.533       .  S
C1073      C1077   1.537       .  S
C1075      H1076   1.109       .  S
C1075      C1081   1.533       .  S
C1075      C1080   1.536       .  S
C1075      C1082   1.520       .  S
C1077      C1080   1.365       .  D
C1077      C1124   1.453       .  S
C1078      C1081   1.370       .  D
C1078      C1109   1.457       .  S
C1079      C1082   1.370       .  D
C1079      C1095   1.460       .  S
C1080      C1127   1.483       .  S
C1081      C1107   1.436       .  S
C1082      C1097   1.444       .  S
C1083      C1084   1.215       .  T
C1085      C1086   1.213       .  T
C1087      C1088   1.209       .  T
C1089      C1090   1.205       .  T
C1091      C1092   1.214       .  T
C1093      C1094   1.202       .  T
C1095      C1096   1.214       .  T
C1097      C1098   1.204       .  T
C1099      C1100   1.219       .  T
C1101      C1102   1.213       .  T
C1103      C1104   1.214       .  T
C1105      C1106   1.201       .  T
C1107      C1108   1.196       .  T
C1109      C1110   1.210       .  T
C1111      C1112   1.212       .  T
C1113      C1114   1.220       .  T
C1115      C1116   1.322       .  D
C1115      H1117   1.088       .  S
C1116      H1118   1.087       .  S
C1119      C1120   1.338       .  D
C1119      H1121   1.088       .  S
C1120      H1122   1.084       .  S
C1123      C1124   1.321       .  D
C1123      H1125   1.089       .  S
C1124      H1126   1.087       .  S
C1127      C1128   1.334       .  D
C1127      H1129   1.087       .  S
C1128      H1130   1.082       .  S
C1131      C1132   1.328       .  D
C1131      H1133   1.086       .  S
C1132      H1134   1.088       .  S
C1135      C1136   1.337       .  D
C1135      H1137   1.087       .  S
C1136      H1138   1.087       .  S
C1139      C1140   1.345       .  D
C1139      H1141   1.086       .  S
C1140      H1142   1.086       .  S
C1143      C1144   1.340       .  D
C1143      H1145   1.087       .  S
C1144      H1146   1.087       .  S
O1147      C1155   1.266       .  A
O1147     Co1167   1.999       .  S
O1148      C1156   1.268       .  A
O1148     Co1168   1.880       .  S
O1149      C1157   1.280       .  A
O1149     Co1169   2.031       .  S
O1150      C1158   1.251       .  A
O1150     Co1170   1.931   1_554  S
O1151      C1157   1.261       .  A
O1151     Co1168   1.960       .  S
O1152      C1158   1.269       .  A
O1152     Co1167   2.004       .  S
O1153      C1156   1.286       .  A
O1153     Co1361   2.084       .  S
O1154      C1155   1.257       .  A
O1154     Co1551   1.953       .  S
C1155      C1335   1.445       .  S
C1156      C1322   1.456       .  S
C1157      C1330   1.468       .  S
C1158      C1326   1.452       .  S
O1159      C1172   1.269       .  A
O1159     Co1167   1.873       .  S
O1160      C1173   1.267       .  A
O1160     Co1168   2.032       .  S
O1161      C1174   1.271       .  A
O1161     Co1551   2.002       .  S
O1162      C1175   1.258       .  A
O1162     Co1361   1.863       .  S
O1163      C1175   1.295       .  A
O1163     Co1168   2.097       .  S
O1164      C1174   1.264       .  A
O1164     Co1167   1.956       .  S
O1165      C1172   1.294       .  A
O1165     Co1170   2.109   1_554  S
O1166      C1173   1.250       .  A
O1166     Co1169   1.959       .  S
Co1167     O1171   1.891       .  S
Co1168     O1362   1.985       .  S
Co1169     O1345   2.020       .  S
Co1169     O1352   1.938       .  S
Co1169     O1362   1.997       .  S
Co1170     O1535   2.038       .  S
Co1170     O1544   1.896       .  S
Co1170     O1171   2.023   1_556  S
O1171     Co1550   1.986   1_554  S
O1171     Co1551   2.009       .  S
C1172      C1319   1.470       .  S
C1173      C1306   1.470       .  S
C1174      C1311   1.456       .  S
C1175      C1314   1.442       .  S
O1176      C1184   1.278       .  A
O1176     Co1769   1.916       .  S
O1177      C1185   1.263       .  A
O1177     Co1197   1.975   1_545  S
O1178      C1186   1.261       .  A
O1178     Co1389   1.971       .  S
O1179      C1187   1.274       .  A
O1179     Co1199   2.062   1_554  S
O1180      C1186   1.272       .  A
O1180     Co1770   2.014       .  S
O1181      C1187   1.254       .  A
O1181     Co1196   1.983       .  S
O1182      C1185   1.283       .  A
O1182     Co1390   2.066       .  S
O1183      C1184   1.290       .  A
O1183     Co1198   2.046   1_554  S
C1184      C1299   1.430       .  S
C1185      C1291   1.467       .  S
C1186      C1301   1.437       .  S
C1187      C1293   1.472       .  S
O1188      C1201   1.274       .  A
O1188     Co1196   2.029       .  S
O1189      C1202   1.261       .  A
O1189     Co1770   1.996       .  S
O1190      C1203   1.254       .  A
O1190     Co1198   2.025   1_554  S
O1191      C1204   1.241       .  A
O1191     Co1390   1.949       .  S
O1192      C1204   1.260       .  A
O1192     Co1197   2.018   1_545  S
O1193      C1203   1.235       .  A
O1193     Co1769   1.964       .  S
O1194      C1201   1.258       .  A
O1194     Co1199   1.965   1_554  S
O1195      C1202   1.266       .  A
O1195     Co1389   2.025       .  S
Co1196     O1749   1.918   1_545  S
Co1196     O1766   1.964   1_545  S
Co1196     O1200   1.963   1_554  S
Co1197     O1753   1.900       .  S
Co1197     O1762   2.084       .  S
Co1197     O1391   2.033   1_565  S
Co1198     O1560   2.091       .  S
Co1198     O1577   1.990       .  S
Co1198     O1773   2.243       .  S
Co1199     O1564   2.017       .  S
Co1199     O1573   1.984       .  S
Co1199     O1200   2.109       .  S
O1200     Co1579   1.970   1_545  S
O1200     Co1771   2.243   1_546  S
C1201      C1294   1.436       .  S
C1202      C1303   1.464       .  S
C1203      C1304   1.447       .  S
C1204      C1296   1.423       .  S
O1205      C1213   1.296       .  A
O1205     Co1225   2.111       .  S
O1206      C1214   1.269       .  A
O1206     Co1226   1.985       .  S
O1207      C1215   1.258       .  A
O1208      C1216   1.291       .  A
O1208     Co1228   2.085       .  S
O1209      C1215   1.260       .  A
O1209     Co1608   2.002       .  S
O1210      C1216   1.275       .  A
O1210     Co1416   1.914       .  S
O1211      C1214   1.279       .  A
O1212      C1213   1.264       .  A
O1212     Co1227   1.911       .  S
C1213      C1289   1.452       .  S
C1214      C1276   1.449       .  S
C1215      C1274   1.447       .  S
C1216      C1287   1.446       .  S
O1217      C1230   1.300       .  A
O1217     Co1416   2.136       .  S
O1218      C1231   1.275       .  A
O1218     Co1608   1.987       .  S
O1219      C1232   1.290       .  A
O1219     Co1227   2.086       .  S
O1220      C1233   1.257       .  A
O1221      C1233   1.266       .  A
O1221     Co1226   2.004       .  S
O1222      C1232   1.272       .  A
O1222     Co1225   1.919       .  S
O1223      C1230   1.264       .  A
O1223     Co1228   1.916       .  S
O1224      C1231   1.280       .  A
Co1225     O1592   2.049   1_554  S
Co1225     O1599   1.981   1_554  S
Co1225     O1229   2.041   1_654  S
Co1226     O1400   2.020       .  S
Co1226     O1409   1.981       .  S
Co1227     O1229   2.025   1_654  S
Co1228     O1420   2.025   1_655  S
O1229     Co1610   2.038   1_455  S
C1230      C1284   1.469       .  S
C1231      C1281   1.443       .  S
C1232      C1282   1.449       .  S
C1233      C1279   1.431       .  S
C1234      H1235   1.112       .  S
C1234      C1240   1.540       .  S
C1234      C1239   1.541       .  S
C1234      C1238   1.537       .  S
C1236      H1237   1.113       .  S
C1236      C1242   1.525       .  S
C1236      C1241   1.537       .  S
C1236      C1243   1.533       .  S
C1238      C1241   1.362       .  D
C1238      C1331   1.473       .  S
C1239      C1242   1.356       .  D
C1239      C1297   1.439       .  S
C1240      C1243   1.380       .  D
C1240      C1278   1.442       .  S
C1241      C1334   1.465       .  S
C1242      C1295   1.450       .  S
C1243      C1280   1.453       .  S
C1244      H1245   1.108       .  S
C1244      C1250   1.536       .  S
C1244      C1249   1.534       .  S
C1244      C1248   1.531       .  S
C1246      H1247   1.111       .  S
C1246      C1252   1.551       .  S
C1246      C1251   1.532       .  S
C1246      C1253   1.549       .  S
C1248      C1251   1.367       .  D
C1248      C1327   1.471       .  S
C1249      C1252   1.394       .  D
C1249      C1292   1.476       .  S
C1250      C1253   1.376       .  D
C1250      C1283   1.458       .  S
C1251      C1323   1.465       .  S
C1252      C1290   1.473       .  S
C1253      C1285   1.479       .  S
C1254      H1255   1.112       .  S
C1254      C1260   1.535       .  S
C1254      C1259   1.538       .  S
C1254      C1258   1.536       .  S
C1256      H1257   1.111       .  S
C1256      C1262   1.543       .  S
C1256      C1261   1.545       .  S
C1256      C1263   1.544       .  S
C1258      C1261   1.370       .  D
C1258      C1310   1.471       .  S
C1259      C1262   1.382       .  D
C1259      C1305   1.453       .  S
C1260      C1263   1.372       .  D
C1260      C1275   1.458       .  S
C1261      C1307   1.488       .  S
C1262      C1302   1.473       .  S
C1263      C1277   1.459       .  S
C1264      H1265   1.111       .  S
C1264      C1270   1.528       .  S
C1264      C1269   1.523       .  S
C1264      C1268   1.531       .  S
C1266      H1267   1.111       .  S
C1266      C1272   1.546       .  S
C1266      C1271   1.544       .  S
C1266      C1273   1.545       .  S
C1268      C1271   1.369       .  D
C1268      C1315   1.465       .  S
C1269      C1272   1.371       .  D
C1269      C1300   1.455       .  S
C1270      C1273   1.373       .  D
C1270      C1286   1.456       .  S
C1271      C1318   1.476       .  S
C1272      C1298   1.446       .  S
C1273      C1288   1.462       .  S
C1274      C1275   1.213       .  T
C1276      C1277   1.214       .  T
C1278      C1279   1.203       .  T
C1280      C1281   1.210       .  T
C1282      C1283   1.214       .  T
C1284      C1285   1.226       .  T
C1286      C1287   1.213       .  T
C1288      C1289   1.216       .  T
C1290      C1291   1.225       .  T
C1292      C1293   1.228       .  T
C1294      C1295   1.207       .  T
C1296      C1297   1.201       .  T
C1298      C1299   1.204       .  T
C1300      C1301   1.207       .  T
C1302      C1303   1.224       .  T
C1304      C1305   1.213       .  T
C1306      C1307   1.337       .  D
C1306      H1308   1.087       .  S
C1307      H1309   1.086       .  S
C1310      C1311   1.340       .  D
C1310      H1312   1.088       .  S
C1311      H1313   1.086       .  S
C1314      C1315   1.330       .  D
C1314      H1316   1.085       .  S
C1315      H1317   1.085       .  S
C1318      C1319   1.335       .  D
C1318      H1320   1.085       .  S
C1319      H1321   1.086       .  S
C1322      C1323   1.329       .  D
C1322      H1324   1.086       .  S
C1323      H1325   1.087       .  S
C1326      C1327   1.333       .  D
C1326      H1328   1.083       .  S
C1327      H1329   1.086       .  S
C1330      C1331   1.333       .  D
C1330      H1332   1.087       .  S
C1331      H1333   1.088       .  S
C1334      C1335   1.328       .  D
C1334      H1336   1.087       .  S
C1335      H1337   1.089       .  S
O1338      C1346   1.262       .  A
O1338     Co1358   1.954       .  S
O1339      C1347   1.262       .  A
O1339     Co1359   1.951       .  S
O1340      C1348   1.254       .  A
O1340     Co1360   1.987       .  S
O1341      C1349   1.252       .  A
O1341     Co1361   1.982       .  S
O1342      C1348   1.249       .  A
O1342     Co1359   1.946       .  S
O1343      C1349   1.248       .  A
O1343     Co1358   1.939       .  S
O1344      C1347   1.270       .  A
O1344     Co1552   2.011       .  S
O1345      C1346   1.272       .  A
C1346      C1526   1.469       .  S
C1347      C1513   1.461       .  S
C1348      C1521   1.442       .  S
C1349      C1517   1.431       .  S
O1350      C1363   1.282       .  A
O1350     Co1358   2.042       .  S
O1351      C1364   1.284       .  A
O1351     Co1359   2.049       .  S
O1352      C1365   1.257       .  A
O1353      C1366   1.257       .  A
O1353     Co1552   1.947       .  S
O1354      C1366   1.263       .  A
O1354     Co1359   1.983       .  S
O1355      C1365   1.263       .  A
O1355     Co1358   1.978       .  S
O1356      C1363   1.262       .  A
O1356     Co1361   1.956       .  S
O1357      C1364   1.261       .  A
O1357     Co1360   1.954       .  S
Co1358     O1362   2.004       .  S
Co1359     O1553   2.004       .  S
Co1360     O1536   2.074       .  S
Co1360     O1543   1.884       .  S
Co1360     O1553   1.982       .  S
Co1361     O1362   1.984       .  S
C1363      C1510   1.470       .  S
C1364      C1497   1.469       .  S
C1365      C1502   1.428       .  S
C1366      C1505   1.438       .  S
O1367      C1375   1.273       .  A
O1367     Co1960   2.027       .  S
O1368      C1376   1.292       .  A
O1368     Co1388   2.084       .  S
O1369      C1377   1.268       .  A
O1369     Co1580   1.991       .  S
O1370      C1378   1.273       .  A
O1370     Co1390   2.053       .  S
O1371      C1377   1.279       .  A
O1371     Co1961   2.044       .  S
O1372      C1378   1.243       .  A
O1372     Co1387   1.938       .  S
O1373      C1376   1.274       .  A
O1373     Co1581   1.921       .  S
O1374      C1375   1.255       .  A
O1374     Co1389   1.960       .  S
C1375      C1490   1.437       .  S
C1376      C1482   1.452       .  S
C1377      C1492   1.462       .  S
C1378      C1484   1.445       .  S
O1379      C1392   1.279       .  A
O1379     Co1387   2.056       .  S
O1380      C1393   1.241       .  A
O1380     Co1961   1.953       .  S
O1381      C1394   1.274       .  A
O1381     Co1389   2.051       .  S
O1382      C1395   1.289       .  A
O1382     Co1581   2.089       .  S
O1383      C1395   1.267       .  A
O1383     Co1388   1.909       .  S
O1384      C1394   1.261       .  A
O1384     Co1960   1.983       .  S
O1385      C1392   1.249       .  A
O1385     Co1390   1.942       .  S
O1386      C1393   1.267       .  A
O1386     Co1580   2.050       .  S
Co1387     O1940   1.948   1_545  S
Co1387     O1957   2.028   1_545  S
Co1387     O1391   2.034       .  S
Co1388     O1944   2.049   1_545  S
Co1388     O1953   1.970   1_545  S
Co1388     O1582   2.021   1_545  S
Co1389     O1964   2.098       .  S
Co1390     O1391   2.048       .  S
O1391     Co1962   2.041   1_545  S
C1392      C1485   1.446       .  S
C1393      C1494   1.452       .  S
C1394      C1495   1.471       .  S
C1395      C1487   1.436       .  S
O1396      C1404   1.276       .  A
O1396     Co1416   2.015       .  S
O1397      C1405   1.269       .  A
O1397     Co1417   1.993       .  S
O1398      C1406   1.265       .  A
O1399      C1407   1.261       .  A
O1399     Co1419   1.959   1_655  S
O1400      C1406   1.271       .  A
O1401      C1407   1.284       .  A
O1401     Co1607   2.059       .  S
O1402      C1405   1.275       .  A
O1403      C1404   1.278       .  A
O1403     Co1418   2.050   1_655  S
C1404      C1480   1.484       .  S
C1405      C1467   1.461       .  S
C1406      C1465   1.455       .  S
C1407      C1478   1.452       .  S
O1408      C1421   1.249       .  A
O1408     Co1607   1.968       .  S
O1409      C1422   1.265       .  A
O1410      C1423   1.242       .  A
O1410     Co1418   1.940   1_655  S
O1411      C1424   1.246       .  A
O1412      C1424   1.271       .  A
O1412     Co1417   2.048       .  S
O1413      C1423   1.270       .  A
O1413     Co1416   2.037       .  S
O1414      C1421   1.267       .  A
O1414     Co1419   2.039   1_655  S
O1415      C1422   1.275       .  A
Co1416     O1420   2.051   1_655  S
Co1417     O1591   1.914       .  S
Co1417     O1600   2.110       .  S
Co1418     O1420   2.034       .  S
Co1419     O1611   2.029   1_455  S
C1421      C1475   1.450       .  S
C1422      C1472   1.446       .  S
C1423      C1473   1.429       .  S
C1424      C1470   1.451       .  S
C1425      H1426   1.112       .  S
C1425      C1431   1.527       .  S
C1425      C1430   1.531       .  S
C1425      C1429   1.531       .  S
C1427      H1428   1.112       .  S
C1427      C1433   1.548       .  S
C1427      C1432   1.534       .  S
C1427      C1434   1.552       .  S
C1429      C1432   1.372       .  D
C1429      C1522   1.457       .  S
C1430      C1433   1.373       .  D
C1430      C1488   1.453       .  S
C1431      C1434   1.374       .  D
C1431      C1469   1.465       .  S
C1432      C1525   1.476       .  S
C1433      C1486   1.466       .  S
C1434      C1471   1.458       .  S
C1435      H1436   1.114       .  S
C1435      C1441   1.514       .  S
C1435      C1440   1.519       .  S
C1435      C1439   1.522       .  S
C1437      H1438   1.111       .  S
C1437      C1443   1.550       .  S
C1437      C1442   1.531       .  S
C1437      C1444   1.553       .  S
C1439      C1442   1.367       .  D
C1439      C1518   1.448       .  S
C1440      C1443   1.381       .  D
C1440      C1483   1.457       .  S
C1441      C1444   1.373       .  D
C1441      C1474   1.445       .  S
C1442      C1514   1.464       .  S
C1443      C1481   1.462       .  S
C1444      C1476   1.464       .  S
C1445      H1446   1.113       .  S
C1445      C1451   1.533       .  S
C1445      C1450   1.535       .  S
C1445      C1449   1.524       .  S
C1447      H1448   1.112       .  S
C1447      C1453   1.549       .  S
C1447      C1452   1.530       .  S
C1447      C1454   1.552       .  S
C1449      C1452   1.370       .  D
C1449      C1501   1.448       .  S
C1450      C1453   1.388       .  D
C1450      C1496   1.478       .  S
C1451      C1454   1.379       .  D
C1451      C1466   1.464       .  S
C1452      C1498   1.481       .  S
C1453      C1493   1.464       .  S
C1454      C1468   1.471       .  S
C1455      H1456   1.113       .  S
C1455      C1461   1.540       .  S
C1455      C1460   1.535       .  S
C1455      C1459   1.524       .  S
C1457      H1458   1.111       .  S
C1457      C1463   1.553       .  S
C1457      C1462   1.536       .  S
C1457      C1464   1.553       .  S
C1459      C1462   1.373       .  D
C1459      C1506   1.459       .  S
C1460      C1463   1.375       .  D
C1460      C1491   1.477       .  S
C1461      C1464   1.385       .  D
C1461      C1477   1.459       .  S
C1462      C1509   1.476       .  S
C1463      C1489   1.453       .  S
C1464      C1479   1.492       .  S
C1465      C1466   1.218       .  T
C1467      C1468   1.221       .  T
C1469      C1470   1.217       .  T
C1471      C1472   1.213       .  T
C1473      C1474   1.206       .  T
C1475      C1476   1.216       .  T
C1477      C1478   1.216       .  T
C1479      C1480   1.235       .  T
C1481      C1482   1.216       .  T
C1483      C1484   1.214       .  T
C1485      C1486   1.215       .  T
C1487      C1488   1.207       .  T
C1489      C1490   1.208       .  T
C1491      C1492   1.222       .  T
C1493      C1494   1.218       .  T
C1495      C1496   1.227       .  T
C1497      C1498   1.338       .  D
C1497      H1499   1.086       .  S
C1498      H1500   1.087       .  S
C1501      C1502   1.331       .  D
C1501      H1503   1.088       .  S
C1502      H1504   1.085       .  S
C1505      C1506   1.333       .  D
C1505      H1507   1.084       .  S
C1506      H1508   1.088       .  S
C1509      C1510   1.338       .  D
C1509      H1511   1.087       .  S
C1510      H1512   1.087       .  S
C1513      C1514   1.337       .  D
C1513      H1515   1.086       .  S
C1514      H1516   1.087       .  S
C1517      C1518   1.333       .  D
C1517      H1519   1.083       .  S
C1518      H1520   1.087       .  S
C1521      C1522   1.337       .  D
C1521      H1523   1.085       .  S
C1522      H1524   1.087       .  S
C1525      C1526   1.343       .  D
C1525      H1527   1.087       .  S
C1526      H1528   1.086       .  S
O1529      C1537   1.267       .  A
O1529     Co1549   1.891       .  S
O1530      C1538   1.280       .  A
O1530     Co1550   1.925       .  S
O1531      C1539   1.253       .  A
O1531     Co1551   1.937   1_556  S
O1532      C1540   1.282       .  A
O1532     Co1552   2.049       .  S
O1533      C1539   1.261       .  A
O1533     Co1550   2.009       .  S
O1534      C1540   1.262       .  A
O1534     Co1549   1.960       .  S
O1535      C1538   1.291       .  A
O1536      C1537   1.286       .  A
C1537      C1717   1.443       .  S
C1538      C1704   1.465       .  S
C1539      C1712   1.448       .  S
C1540      C1708   1.474       .  S
O1541      C1554   1.263       .  A
O1541     Co1549   2.012       .  S
O1542      C1555   1.261       .  A
O1542     Co1550   1.943       .  S
O1543      C1556   1.259       .  A
O1544      C1557   1.278       .  A
O1545      C1557   1.295       .  A
O1545     Co1550   2.049       .  S
O1546      C1556   1.290       .  A
O1546     Co1549   2.086       .  S
O1547      C1554   1.246       .  A
O1547     Co1552   1.952       .  S
O1548      C1555   1.272       .  A
O1548     Co1551   2.016   1_556  S
Co1549     O1553   1.993       .  S
Co1552     O1553   2.002       .  S
C1554      C1701   1.453       .  S
C1555      C1688   1.470       .  S
C1556      C1693   1.448       .  S
C1557      C1696   1.448       .  S
O1558      C1566   1.289       .  A
O1558     Co2151   2.080       .  S
O1559      C1567   1.260       .  A
O1559     Co1579   1.996   1_545  S
O1560      C1568   1.296       .  A
O1561      C1569   1.271       .  A
O1561     Co1581   1.991       .  S
O1562      C1568   1.268       .  A
O1562     Co2152   1.897       .  S
O1563      C1569   1.275       .  A
O1563     Co1578   2.033   1_545  S
O1564      C1567   1.263       .  A
O1565      C1566   1.269       .  A
O1565     Co1580   1.901       .  S
C1566      C1681   1.429       .  S
C1567      C1673   1.458       .  S
C1568      C1683   1.444       .  S
C1569      C1675   1.459       .  S
O1570      C1583   1.245       .  A
O1570     Co1578   1.958   1_545  S
O1571      C1584   1.249       .  A
O1571     Co2152   1.982       .  S
O1572      C1585   1.301       .  A
O1572     Co1580   2.124       .  S
O1573      C1586   1.265       .  A
O1574      C1586   1.271       .  A
O1574     Co1579   2.016   1_545  S
O1575      C1585   1.264       .  A
O1575     Co2151   1.902       .  S
O1576      C1583   1.274       .  A
O1576     Co1581   2.061       .  S
O1577      C1584   1.252       .  A
Co1578     O2131   2.047       .  S
Co1578     O2148   1.938       .  S
Co1578     O1582   2.034       .  S
Co1579     O2135   1.894       .  S
Co1579     O2144   1.988       .  S
Co1580     O2155   2.036       .  S
Co1581     O1582   2.036   1_545  S
O1582     Co2153   2.067       .  S
C1583      C1676   1.458       .  S
C1584      C1685   1.443       .  S
C1585      C1686   1.453       .  S
C1586      C1678   1.445       .  S
O1587      C1595   1.273       .  A
O1587     Co1607   2.040       .  S
O1588      C1596   1.264       .  A
O1588     Co1608   1.991   1_556  S
O1589      C1597   1.291       .  A
O1590      C1598   1.245       .  A
O1590     Co1610   1.952       .  S
O1591      C1597   1.271       .  A
O1592      C1598   1.272       .  A
O1593      C1596   1.268       .  A
O1594      C1595   1.253       .  A
O1594     Co1609   1.953       .  S
C1595      C1671   1.445       .  S
C1596      C1658   1.453       .  S
C1597      C1656   1.444       .  S
C1598      C1669   1.447       .  S
O1599      C1612   1.267       .  A
O1600      C1613   1.295       .  A
O1601      C1614   1.273       .  A
O1601     Co1609   2.032       .  S
O1602      C1615   1.263       .  A
O1603      C1615   1.271       .  A
O1603     Co1608   2.022   1_556  S
O1604      C1614   1.256       .  A
O1604     Co1607   1.960       .  S
O1605      C1612   1.276       .  A
O1605     Co1610   2.032       .  S
O1606      C1613   1.263       .  A
Co1607     O1611   2.044       .  S
Co1609     O1611   2.045       .  S
C1612      C1666   1.449       .  S
C1613      C1663   1.446       .  S
C1614      C1664   1.440       .  S
C1615      C1661   1.463       .  S
C1616      H1617   1.113       .  S
C1616      C1622   1.538       .  S
C1616      C1621   1.550       .  S
C1616      C1620   1.519       .  S
C1618      H1619   1.111       .  S
C1618      C1624   1.531       .  S
C1618      C1623   1.539       .  S
C1618      C1625   1.541       .  S
C1620      C1623   1.374       .  D
C1620      C1713   1.461       .  S
C1621      C1624   1.381       .  D
C1621      C1679   1.456       .  S
C1622      C1625   1.375       .  D
C1622      C1660   1.474       .  S
C1623      C1716   1.465       .  S
C1624      C1677   1.475       .  S
C1625      C1662   1.457       .  S
C1626      H1627   1.112       .  S
C1626      C1632   1.549       .  S
C1626      C1631   1.552       .  S
C1626      C1630   1.537       .  S
C1628      H1629   1.112       .  S
C1628      C1634   1.536       .  S
C1628      C1633   1.543       .  S
C1628      C1635   1.535       .  S
C1630      C1633   1.374       .  D
C1630      C1709   1.483       .  S
C1631      C1634   1.377       .  D
C1631      C1674   1.467       .  S
C1632      C1635   1.374       .  D
C1632      C1665   1.453       .  S
C1633      C1705   1.478       .  S
C1634      C1672   1.467       .  S
C1635      C1667   1.462       .  S
C1636      H1637   1.112       .  S
C1636      C1642   1.536       .  S
C1636      C1641   1.530       .  S
C1636      C1640   1.533       .  S
C1638      H1639   1.112       .  S
C1638      C1644   1.548       .  S
C1638      C1643   1.532       .  S
C1638      C1645   1.544       .  S
C1640      C1643   1.366       .  D
C1640      C1692   1.463       .  S
C1641      C1644   1.377       .  D
C1641      C1687   1.465       .  S
C1642      C1645   1.375       .  D
C1642      C1657   1.456       .  S
C1643      C1689   1.468       .  S
C1644      C1684   1.454       .  S
C1645      C1659   1.464       .  S
C1646      H1647   1.112       .  S
C1646      C1652   1.545       .  S
C1646      C1651   1.547       .  S
C1646      C1650   1.520       .  S
C1648      H1649   1.113       .  S
C1648      C1654   1.521       .  S
C1648      C1653   1.539       .  S
C1648      C1655   1.523       .  S
C1650      C1653   1.362       .  D
C1650      C1697   1.450       .  S
C1651      C1654   1.373       .  D
C1651      C1682   1.457       .  S
C1652      C1655   1.377       .  D
C1652      C1668   1.458       .  S
C1653      C1700   1.468       .  S
C1654      C1680   1.442       .  S
C1655      C1670   1.454       .  S
C1656      C1657   1.211       .  T
C1658      C1659   1.216       .  T
C1660      C1661   1.222       .  T
C1662      C1663   1.212       .  T
C1664      C1665   1.209       .  T
C1666      C1667   1.214       .  T
C1668      C1669   1.215       .  T
C1670      C1671   1.212       .  T
C1672      C1673   1.220       .  T
C1674      C1675   1.220       .  T
C1676      C1677   1.222       .  T
C1678      C1679   1.211       .  T
C1680      C1681   1.202       .  T
C1682      C1683   1.211       .  T
C1684      C1685   1.211       .  T
C1686      C1687   1.217       .  T
C1688      C1689   1.340       .  D
C1688      H1690   1.087       .  S
C1689      H1691   1.087       .  S
C1692      C1693   1.334       .  D
C1692      H1694   1.087       .  S
C1693      H1695   1.085       .  S
C1696      C1697   1.335       .  D
C1696      H1698   1.084       .  S
C1697      H1699   1.088       .  S
C1700      C1701   1.327       .  D
C1700      H1702   1.086       .  S
C1701      H1703   1.089       .  S
C1704      C1705   1.349       .  D
C1704      H1706   1.082       .  S
C1705      H1707   1.087       .  S
C1708      C1709   1.338       .  D
C1708      H1710   1.087       .  S
C1709      H1711   1.087       .  S
C1712      C1713   1.334       .  D
C1712      H1714   1.086       .  S
C1713      H1715   1.087       .  S
C1716      C1717   1.331       .  D
C1716      H1718   1.087       .  S
C1717      H1719   1.085       .  S
O1720      C1728   1.263       .  A
O1720     Co1740   1.949       .  S
O1721      C1729   1.274       .  A
O1721     Co1741   1.891       .  S
O1722      C1730   1.280       .  A
O1722     Co1742   2.038       .  S
O1723      C1731   1.250       .  A
O1723     Co1743   1.988   1_554  S
O1724      C1730   1.268       .  A
O1724     Co1741   1.962       .  S
O1725      C1731   1.248       .  A
O1725     Co1740   1.951       .  S
O1726      C1729   1.287       .  A
O1726     Co1934   2.057       .  S
O1727      C1728   1.271       .  A
O1727     Co2124   2.009       .  S
C1728      C1908   1.456       .  S
C1729      C1895   1.452       .  S
C1730      C1903   1.476       .  S
C1731      C1899   1.447       .  S
O1732      C1745   1.285       .  A
O1732     Co1740   2.044       .  S
O1733      C1746   1.268       .  A
O1733     Co1741   2.016       .  S
O1734      C1747   1.253       .  A
O1734     Co2124   1.943       .  S
O1735      C1748   1.227       .  A
O1735     Co1934   1.881       .  S
O1736      C1748   1.267       .  A
O1736     Co1741   2.035       .  S
O1737      C1747   1.263       .  A
O1737     Co1740   1.992       .  S
O1738      C1745   1.259       .  A
O1738     Co1743   1.954   1_554  S
O1739      C1746   1.248       .  A
O1739     Co1742   1.950       .  S
Co1740     O1744   2.006       .  S
Co1741     O1935   1.965       .  S
Co1742     O1918   2.012       .  S
Co1742     O1925   1.942       .  S
Co1742     O1935   2.011       .  S
Co1743     O2108   2.062       .  S
Co1743     O2117   1.882       .  S
Co1743     O1744   1.992   1_556  S
O1744     Co2123   2.005   1_554  S
O1744     Co2124   1.986       .  S
C1745      C1892   1.474       .  S
C1746      C1879   1.452       .  S
C1747      C1884   1.441       .  S
C1748      C1887   1.432       .  S
O1749      C1757   1.276       .  A
O1750      C1758   1.241       .  A
O1750     Co1770   1.985       .  S
O1751      C1759   1.299       .  A
O1751     Co1962   2.125       .  S
O1752      C1760   1.269       .  A
O1752     Co1772   2.047   1_554  S
O1753      C1759   1.263       .  A
O1754      C1760   1.249       .  A
O1754     Co1769   1.979       .  S
O1755      C1758   1.253       .  A
O1755     Co1963   2.024       .  S
O1756      C1757   1.289       .  A
O1756     Co1771   2.051       .  S
C1757      C1872   1.435       .  S
C1758      C1864   1.462       .  S
C1759      C1874   1.447       .  S
C1760      C1866   1.456       .  S
O1761      C1774   1.277       .  A
O1761     Co1769   2.037       .  S
O1762      C1775   1.289       .  A
O1763      C1776   1.255       .  A
O1763     Co1771   2.020       .  S
O1764      C1777   1.295       .  A
O1764     Co1963   2.068       .  S
O1765      C1777   1.276       .  A
O1765     Co1770   1.905       .  S
O1766      C1776   1.239       .  A
O1767      C1774   1.258       .  A
O1767     Co1772   1.967   1_554  S
O1768      C1775   1.272       .  A
O1768     Co1962   1.920       .  S
Co1769     O1773   1.938   1_554  S
Co1770     O1964   1.956       .  S
Co1771     O2133   2.074   1_554  S
Co1771     O2150   2.007   1_554  S
Co1772     O2137   2.025       .  S
Co1772     O2146   1.968       .  S
Co1772     O1773   2.108       .  S
O1773     Co2152   1.968       .  S
C1774      C1867   1.445       .  S
C1775      C1876   1.448       .  S
C1776      C1877   1.447       .  S
C1777      C1869   1.436       .  S
O1778      C1786   1.296       .  A
O1778     Co1798   2.121       .  S
O1779      C1787   1.253       .  A
O1779     Co1799   1.976       .  S
O1780      C1788   1.288       .  A
O1781      C1789   1.290       .  A
O1781     Co1801   2.078       .  S
O1782      C1788   1.273       .  A
O1782     Co2181   1.905       .  S
O1783      C1789   1.272       .  A
O1783     Co1989   1.904       .  S
O1784      C1787   1.264       .  A
O1785      C1786   1.266       .  A
O1785     Co1800   1.920       .  S
C1786      C1862   1.465       .  S
C1787      C1849   1.448       .  S
C1788      C1847   1.431       .  S
C1789      C1860   1.436       .  S
O1790      C1803   1.298       .  A
O1790     Co1989   2.122       .  S
O1791      C1804   1.301       .  A
O1791     Co2181   2.126       .  S
O1792      C1805   1.289       .  A
O1792     Co1800   2.077       .  S
O1793      C1806   1.265       .  A
O1794      C1806   1.279       .  A
O1794     Co1799   2.037       .  S
O1795      C1805   1.275       .  A
O1795     Co1798   1.912       .  S
O1796      C1803   1.266       .  A
O1796     Co1801   1.915       .  S
O1797      C1804   1.262       .  A
Co1798     O2165   2.044   1_554  S
Co1798     O2172   1.999   1_554  S
Co1798     O1802   2.036   1_654  S
Co1799     O1973   1.953       .  S
Co1799     O1982   2.058       .  S
Co1800     O1802   2.016   1_654  S
Co1801     O1993   2.016   1_655  S
O1802     Co2183   2.028       .  S
C1803      C1857   1.463       .  S
C1804      C1854   1.457       .  S
C1805      C1855   1.442       .  S
C1806      C1852   1.445       .  S
C1807      H1808   1.112       .  S
C1807      C1813   1.538       .  S
C1807      C1812   1.543       .  S
C1807      C1811   1.538       .  S
C1809      H1810   1.111       .  S
C1809      C1815   1.536       .  S
C1809      C1814   1.535       .  S
C1809      C1816   1.539       .  S
C1811      C1814   1.376       .  D
C1811      C1904   1.485       .  S
C1812      C1815   1.370       .  D
C1812      C1870   1.450       .  S
C1813      C1816   1.377       .  D
C1813      C1851   1.455       .  S
C1814      C1907   1.470       .  S
C1815      C1868   1.461       .  S
C1816      C1853   1.466       .  S
C1817      H1818   1.113       .  S
C1817      C1823   1.529       .  S
C1817      C1822   1.532       .  S
C1817      C1821   1.516       .  S
C1819      H1820   1.109       .  S
C1819      C1825   1.549       .  S
C1819      C1824   1.546       .  S
C1819      C1826   1.549       .  S
C1821      C1824   1.363       .  D
C1821      C1900   1.449       .  S
C1822      C1825   1.386       .  D
C1822      C1865   1.463       .  S
C1823      C1826   1.375       .  D
C1823      C1856   1.453       .  S
C1824      C1896   1.474       .  S
C1825      C1863   1.470       .  S
C1826      C1858   1.474       .  S
C1827      H1828   1.113       .  S
C1827      C1833   1.527       .  S
C1827      C1832   1.530       .  S
C1827      C1831   1.524       .  S
C1829      H1830   1.112       .  S
C1829      C1835   1.540       .  S
C1829      C1834   1.534       .  S
C1829      C1836   1.542       .  S
C1831      C1834   1.366       .  D
C1831      C1883   1.461       .  S
C1832      C1835   1.380       .  D
C1832      C1878   1.454       .  S
C1833      C1836   1.372       .  D
C1833      C1848   1.442       .  S
C1834      C1880   1.463       .  S
C1835      C1875   1.456       .  S
C1836      C1850   1.460       .  S
C1837      H1838   1.113       .  S
C1837      C1843   1.531       .  S
C1837      C1842   1.511       .  S
C1837      C1841   1.530       .  S
C1839      H1840   1.109       .  S
C1839      C1845   1.564       .  S
C1839      C1844   1.544       .  S
C1839      C1846   1.552       .  S
C1841      C1844   1.363       .  D
C1841      C1888   1.452       .  S
C1842      C1845   1.373       .  D
C1842      C1873   1.463       .  S
C1843      C1846   1.374       .  D
C1843      C1859   1.446       .  S
C1844      C1891   1.487       .  S
C1845      C1871   1.448       .  S
C1846      C1861   1.475       .  S
C1847      C1848   1.203       .  T
C1849      C1850   1.214       .  T
C1851      C1852   1.212       .  T
C1853      C1854   1.219       .  T
C1855      C1856   1.210       .  T
C1857      C1858   1.222       .  T
C1859      C1860   1.206       .  T
C1861      C1862   1.223       .  T
C1863      C1864   1.222       .  T
C1865      C1866   1.218       .  T
C1867      C1868   1.213       .  T
C1869      C1870   1.207       .  T
C1871      C1872   1.207       .  T
C1873      C1874   1.213       .  T
C1875      C1876   1.214       .  T
C1877      C1878   1.213       .  T
C1879      C1880   1.329       .  D
C1879      H1881   1.088       .  S
C1880      H1882   1.087       .  S
C1883      C1884   1.339       .  D
C1883      H1885   1.088       .  S
C1884      H1886   1.082       .  S
C1887      C1888   1.318       .  D
C1887      H1889   1.088       .  S
C1888      H1890   1.087       .  S
C1891      C1892   1.332       .  D
C1891      H1893   1.086       .  S
C1892      H1894   1.085       .  S
C1895      C1896   1.326       .  D
C1895      H1897   1.084       .  S
C1896      H1898   1.088       .  S
C1899      C1900   1.333       .  D
C1899      H1901   1.086       .  S
C1900      H1902   1.088       .  S
C1903      C1904   1.346       .  D
C1903      H1905   1.087       .  S
C1904      H1906   1.086       .  S
C1907      C1908   1.340       .  D
C1907      H1909   1.086       .  S
C1908      H1910   1.086       .  S
O1911      C1919   1.252       .  A
O1911     Co1931   1.936       .  S
O1912      C1920   1.274       .  A
O1912     Co1932   1.903       .  S
O1913      C1921   1.278       .  A
O1913     Co1933   2.032       .  S
O1914      C1922   1.240       .  A
O1914     Co1934   1.927       .  S
O1915      C1921   1.264       .  A
O1915     Co1932   1.940       .  S
O1916      C1922   1.257       .  A
O1916     Co1931   1.978       .  S
O1917      C1920   1.287       .  A
O1917     Co2125   2.074       .  S
O1918      C1919   1.267       .  A
C1919      C2099   1.449       .  S
C1920      C2086   1.460       .  S
C1921      C2094   1.457       .  S
C1922      C2090   1.426       .  S
O1923      C1936   1.277       .  A
O1923     Co1931   2.039       .  S
O1924      C1937   1.273       .  A
O1924     Co1932   2.036       .  S
O1925      C1938   1.257       .  A
O1926      C1939   1.271       .  A
O1926     Co2125   1.903       .  S
O1927      C1939   1.275       .  A
O1927     Co1932   2.039       .  S
O1928      C1938   1.268       .  A
O1928     Co1931   1.999       .  S
O1929      C1936   1.255       .  A
O1929     Co1934   1.937       .  S
O1930      C1937   1.252       .  A
O1930     Co1933   1.954       .  S
Co1931     O1935   2.035       .  S
Co1932     O2126   1.983       .  S
Co1933     O2109   1.991       .  S
Co1933     O2116   1.953       .  S
Co1933     O2126   1.997       .  S
Co1934     O1935   2.009       .  S
C1936      C2083   1.461       .  S
C1937      C2070   1.465       .  S
C1938      C2075   1.439       .  S
C1939      C2078   1.444       .  S
O1940      C1948   1.245       .  A
O1941      C1949   1.274       .  A
O1941     Co1961   2.039       .  S
O1942      C1950   1.254       .  A
O1942     Co2153   1.986       .  S
O1943      C1951   1.255       .  A
O1943     Co1963   2.010       .  S
O1944      C1950   1.270       .  A
O1945      C1951   1.236       .  A
O1945     Co1960   1.952       .  S
O1946      C1949   1.257       .  A
O1946     Co2154   1.967       .  S
O1947      C1948   1.269       .  A
O1947     Co1962   2.038       .  S
C1948      C2063   1.437       .  S
C1949      C2055   1.451       .  S
C1950      C2065   1.471       .  S
C1951      C2057   1.436       .  S
O1952      C1965   1.273       .  A
O1952     Co1960   1.913       .  S
O1953      C1966   1.260       .  A
O1954      C1967   1.274       .  A
O1954     Co1962   2.007       .  S
O1955      C1968   1.271       .  A
O1955     Co2154   2.030       .  S
O1956      C1968   1.242       .  A
O1956     Co1961   1.922       .  S
O1957      C1967   1.273       .  A
O1958      C1965   1.296       .  A
O1958     Co1963   2.085       .  S
O1959      C1966   1.277       .  A
O1959     Co2153   2.039       .  S
Co1960     O1964   1.968       .  S
Co1961     O2155   2.027       .  S
Co1963     O1964   2.249       .  S
C1965      C2058   1.453       .  S
C1966      C2067   1.447       .  S
C1967      C2068   1.465       .  S
C1968      C2060   1.416       .  S
O1969      C1977   1.271       .  A
O1969     Co1989   1.996       .  S
O1970      C1978   1.292       .  A
O1970     Co1990   2.103       .  S
O1971      C1979   1.279       .  A
O1972      C1980   1.262       .  A
O1972     Co1992   1.988   1_655  S
O1973      C1979   1.256       .  A
O1974      C1980   1.273       .  A
O1974     Co2180   2.034       .  S
O1975      C1978   1.266       .  A
O1976      C1977   1.275       .  A
O1976     Co1991   2.030   1_655  S
C1977      C2053   1.458       .  S
C1978      C2040   1.444       .  S
C1979      C2038   1.444       .  S
C1980      C2051   1.462       .  S
O1981      C1994   1.268       .  A
O1981     Co2180   1.982       .  S
O1982      C1995   1.273       .  A
O1983      C1996   1.244       .  A
O1983     Co1991   1.951   1_655  S
O1984      C1997   1.285       .  A
O1985      C1997   1.274       .  A
O1985     Co1990   1.913       .  S
O1986      C1996   1.271       .  A
O1986     Co1989   2.049       .  S
O1987      C1994   1.278       .  A
O1987     Co1992   2.021   1_655  S
O1988      C1995   1.243       .  A
Co1989     O1993   2.033   1_655  S
Co1990     O2164   2.034       .  S
Co1990     O2173   1.992       .  S
Co1991     O1993   2.028       .  S
Co1992     O2184   1.950   1_455  S
C1994      C2048   1.449       .  S
C1995      C2045   1.447       .  S
C1996      C2046   1.447       .  S
C1997      C2043   1.437       .  S
C1998      H1999   1.111       .  S
C1998      C2004   1.524       .  S
C1998      C2003   1.514       .  S
C1998      C2002   1.529       .  S
C2000      H2001   1.112       .  S
C2000      C2006   1.544       .  S
C2000      C2005   1.536       .  S
C2000      C2007   1.534       .  S
C2002      C2005   1.375       .  D
C2002      C2095   1.474       .  S
C2003      C2006   1.370       .  D
C2003      C2061   1.434       .  S
C2004      C2007   1.378       .  D
C2004      C2042   1.443       .  S
C2005      C2098   1.462       .  S
C2006      C2059   1.465       .  S
C2007      C2044   1.458       .  S
C2008      H2009   1.113       .  S
C2008      C2014   1.525       .  S
C2008      C2013   1.527       .  S
C2008      C2012   1.522       .  S
C2010      H2011   1.109       .  S
C2010      C2016   1.547       .  S
C2010      C2015   1.545       .  S
C2010      C2017   1.550       .  S
C2012      C2015   1.366       .  D
C2012      C2091   1.442       .  S
C2013      C2016   1.381       .  D
C2013      C2056   1.449       .  S
C2014      C2017   1.369       .  D
C2014      C2047   1.462       .  S
C2015      C2087   1.482       .  S
C2016      C2054   1.465       .  S
C2017      C2049   1.461       .  S
C2018      H2019   1.112       .  S
C2018      C2024   1.544       .  S
C2018      C2023   1.542       .  S
C2018      C2022   1.527       .  S
C2020      H2021   1.112       .  S
C2020      C2026   1.542       .  S
C2020      C2025   1.536       .  S
C2020      C2027   1.537       .  S
C2022      C2025   1.368       .  D
C2022      C2074   1.461       .  S
C2023      C2026   1.383       .  D
C2023      C2069   1.474       .  S
C2024      C2027   1.369       .  D
C2024      C2039   1.458       .  S
C2025      C2071   1.477       .  S
C2026      C2066   1.455       .  S
C2027      C2041   1.457       .  S
C2028      H2029   1.112       .  S
C2028      C2034   1.540       .  S
C2028      C2033   1.553       .  S
C2028      C2032   1.526       .  S
C2030      H2031   1.112       .  S
C2030      C2036   1.530       .  S
C2030      C2035   1.534       .  S
C2030      C2037   1.546       .  S
C2032      C2035   1.377       .  D
C2032      C2079   1.460       .  S
C2033      C2036   1.374       .  D
C2033      C2064   1.482       .  S
C2034      C2037   1.385       .  D
C2034      C2050   1.471       .  S
C2035      C2082   1.481       .  S
C2036      C2062   1.454       .  S
C2037      C2052   1.468       .  S
C2038      C2039   1.212       .  T
C2040      C2041   1.211       .  T
C2042      C2043   1.207       .  T
C2044      C2045   1.215       .  T
C2046      C2047   1.215       .  T
C2048      C2049   1.215       .  T
C2050      C2051   1.222       .  T
C2052      C2053   1.220       .  T
C2054      C2055   1.215       .  T
C2056      C2057   1.207       .  T
C2058      C2059   1.216       .  T
C2060      C2061   1.198       .  T
C2062      C2063   1.210       .  T
C2064      C2065   1.228       .  T
C2066      C2067   1.213       .  T
C2068      C2069   1.224       .  T
C2070      C2071   1.333       .  D
C2070      H2072   1.088       .  S
C2071      H2073   1.087       .  S
C2074      C2075   1.339       .  D
C2074      H2076   1.088       .  S
C2075      H2077   1.084       .  S
C2078      C2079   1.318       .  D
C2078      H2080   1.088       .  S
C2079      H2081   1.087       .  S
C2082      C2083   1.340       .  D
C2082      H2084   1.086       .  S
C2083      H2085   1.086       .  S
C2086      C2087   1.330       .  D
C2086      H2088   1.084       .  S
C2087      H2089   1.087       .  S
C2090      C2091   1.323       .  D
C2090      H2092   1.086       .  S
C2091      H2093   1.088       .  S
C2094      C2095   1.346       .  D
C2094      H2096   1.084       .  S
C2095      H2097   1.086       .  S
C2098      C2099   1.342       .  D
C2098      H2100   1.087       .  S
C2099      H2101   1.083       .  S
O2102      C2110   1.267       .  A
O2102     Co2122   1.951       .  S
O2103      C2111   1.271       .  A
O2103     Co2123   1.902       .  S
O2104      C2112   1.281       .  A
O2104     Co2124   2.043   1_556  S
O2105      C2113   1.266       .  A
O2105     Co2125   2.027       .  S
O2106      C2112   1.265       .  A
O2106     Co2123   1.956       .  S
O2107      C2113   1.253       .  A
O2107     Co2122   1.958       .  S
O2108      C2111   1.284       .  A
O2109      C2110   1.268       .  A
C2110      C2290   1.443       .  S
C2111      C2277   1.446       .  S
C2112      C2285   1.474       .  S
C2113      C2281   1.479       .  S
O2114      C2127   1.283       .  A
O2114     Co2122   2.028       .  S
O2115      C2128   1.264       .  A
O2115     Co2123   2.003       .  S
O2116      C2129   1.257       .  A
O2117      C2130   1.256       .  A
O2118      C2130   1.288       .  A
O2118     Co2123   2.080       .  S
O2119      C2129   1.263       .  A
O2119     Co2122   1.990       .  S
O2120      C2127   1.265       .  A
O2120     Co2125   1.953       .  S
O2121      C2128   1.244       .  A
O2121     Co2124   1.949   1_556  S
Co2122     O2126   2.005       .  S
Co2125     O2126   1.993       .  S
C2127      C2274   1.468       .  S
C2128      C2261   1.449       .  S
C2129      C2266   1.440       .  S
C2130      C2269   1.438       .  S
O2131      C2139   1.279       .  A
O2132      C2140   1.259       .  A
O2132     Co2152   1.989       .  S
O2133      C2141   1.293       .  A
O2134      C2142   1.251       .  A
O2134     Co2154   1.967       .  S
O2135      C2141   1.271       .  A
O2136      C2142   1.267       .  A
O2136     Co2151   2.030       .  S
O2137      C2140   1.266       .  A
O2138      C2139   1.251       .  A
O2138     Co2153   1.935       .  S
C2139      C2254   1.433       .  S
C2140      C2246   1.456       .  S
C2141      C2256   1.433       .  S
C2142      C2248   1.445       .  S
O2143      C2156   1.264       .  A
O2143     Co2151   1.979       .  S
O2144      C2157   1.248       .  A
O2145      C2158   1.275       .  A
O2145     Co2153   2.069       .  S
O2146      C2159   1.260       .  A
O2147      C2159   1.270       .  A
O2147     Co2152   2.014       .  S
O2148      C2158   1.240       .  A
O2149      C2156   1.281       .  A
O2149     Co2154   2.059       .  S
O2150      C2157   1.253       .  A
Co2151     O2155   2.013       .  S
Co2154     O2155   2.055       .  S
C2156      C2249   1.464       .  S
C2157      C2258   1.458       .  S
C2158      C2259   1.453       .  S
C2159      C2251   1.435       .  S
O2160      C2168   1.271       .  A
O2160     Co2180   1.989       .  S
O2161      C2169   1.272       .  A
O2161     Co2181   2.002   1_556  S
O2162      C2170   1.245       .  A
O2163      C2171   1.245       .  A
O2163     Co2183   1.951   1_655  S
O2164      C2170   1.267       .  A
O2165      C2171   1.272       .  A
O2166      C2169   1.278       .  A
O2167      C2168   1.282       .  A
O2167     Co2182   2.033       .  S
C2168      C2244   1.455       .  S
C2169      C2231   1.474       .  S
C2170      C2229   1.435       .  S
C2171      C2242   1.441       .  S
O2172      C2185   1.273       .  A
O2173      C2186   1.274       .  A
O2174      C2187   1.260       .  A
O2174     Co2182   1.977       .  S
O2175      C2188   1.247       .  A
O2176      C2188   1.270       .  A
O2176     Co2181   2.045   1_556  S
O2177      C2187   1.272       .  A
O2177     Co2180   2.031       .  S
O2178      C2185   1.274       .  A
O2178     Co2183   2.028   1_655  S
O2179      C2186   1.278       .  A
Co2180     O2184   2.034       .  S
Co2182     O2184   1.941       .  S
C2185      C2239   1.460       .  S
C2186      C2236   1.463       .  S
C2187      C2237   1.453       .  S
C2188      C2234   1.451       .  S
C2189      H2190   1.112       .  S
C2189      C2195   1.535       .  S
C2189      C2194   1.551       .  S
C2189      C2193   1.523       .  S
C2191      H2192   1.110       .  S
C2191      C2197   1.533       .  S
C2191      C2196   1.547       .  S
C2191      C2198   1.547       .  S
C2193      C2196   1.374       .  D
C2193      C2286   1.485       .  S
C2194      C2197   1.376       .  D
C2194      C2252   1.447       .  S
C2195      C2198   1.378       .  D
C2195      C2233   1.461       .  S
C2196      C2289   1.460       .  S
C2197      C2250   1.477       .  S
C2198      C2235   1.472       .  S
C2199      H2200   1.112       .  S
C2199      C2205   1.545       .  S
C2199      C2204   1.559       .  S
C2199      C2203   1.523       .  S
C2201      H2202   1.111       .  S
C2201      C2207   1.530       .  S
C2201      C2206   1.550       .  S
C2201      C2208   1.539       .  S
C2203      C2206   1.366       .  D
C2203      C2282   1.477       .  S
C2204      C2207   1.375       .  D
C2204      C2247   1.458       .  S
C2205      C2208   1.380       .  D
C2205      C2238   1.461       .  S
C2206      C2278   1.467       .  S
C2207      C2245   1.468       .  S
C2208      C2240   1.469       .  S
C2209      H2210   1.114       .  S
C2209      C2215   1.534       .  S
C2209      C2214   1.528       .  S
C2209      C2213   1.510       .  S
C2211      H2212   1.112       .  S
C2211      C2217   1.554       .  S
C2211      C2216   1.544       .  S
C2211      C2218   1.547       .  S
C2213      C2216   1.362       .  D
C2213      C2265   1.458       .  S
C2214      C2217   1.383       .  D
C2214      C2260   1.465       .  S
C2215      C2218   1.379       .  D
C2215      C2230   1.446       .  S
C2216      C2262   1.457       .  S
C2217      C2257   1.468       .  S
C2218      C2232   1.483       .  S
C2219      H2220   1.113       .  S
C2219      C2225   1.532       .  S
C2219      C2224   1.527       .  S
C2219      C2223   1.535       .  S
C2221      H2222   1.109       .  S
C2221      C2227   1.545       .  S
C2221      C2226   1.540       .  S
C2221      C2228   1.547       .  S
C2223      C2226   1.370       .  D
C2223      C2270   1.459       .  S
C2224      C2227   1.369       .  D
C2224      C2255   1.451       .  S
C2225      C2228   1.374       .  D
C2225      C2241   1.455       .  S
C2226      C2273   1.482       .  S
C2227      C2253   1.451       .  S
C2228      C2243   1.465       .  S
C2229      C2230   1.208       .  T
C2231      C2232   1.229       .  T
C2233      C2234   1.217       .  T
C2235      C2236   1.223       .  T
C2237      C2238   1.216       .  T
C2239      C2240   1.221       .  T
C2241      C2242   1.212       .  T
C2243      C2244   1.217       .  T
C2245      C2246   1.218       .  T
C2247      C2248   1.213       .  T
C2249      C2250   1.223       .  T
C2251      C2252   1.206       .  T
C2253      C2254   1.207       .  T
C2255      C2256   1.205       .  T
C2257      C2258   1.220       .  T
C2259      C2260   1.218       .  T
C2261      C2262   1.324       .  D
C2261      H2263   1.088       .  S
C2262      H2264   1.087       .  S
C2265      C2266   1.339       .  D
C2265      H2267   1.088       .  S
C2266      H2268   1.085       .  S
C2269      C2270   1.328       .  D
C2269      H2271   1.084       .  S
C2270      H2272   1.090       .  S
C2273      C2274   1.337       .  D
C2273      H2275   1.086       .  S
C2274      H2276   1.084       .  S
C2277      C2278   1.331       .  D
C2277      H2279   1.086       .  S
C2278      H2280   1.088       .  S
C2281      C2282   1.348       .  D
C2281      H2283   1.086       .  S
C2282      H2284   1.087       .  S
C2285      C2286   1.348       .  D
C2285      H2287   1.086       .  S
C2286      H2288   1.086       .  S
C2289      C2290   1.330       .  D
C2289      H2291   1.087       .  S
C2290      H2292   1.086       .  S
