geometry optimzed in LAMMPS
_audit_creation_date              2020-11-30 
_audit_creation_method            'lammps2cif' 
_symmetry_space_group_name_H-M    'P1' 
_symmetry_Int_Tables_number       1 
_symmetry_cell_setting            triclinic 
loop_ 
_symmetry_equiv_pos_as_xyz 
  x,y,z 
_cell_length_a                    58.96669828 
_cell_length_b                    58.93321456110046 
_cell_length_c                    58.90272364220785 
_cell_angle_alpha                 89.99550309588102 
_cell_angle_beta                  90.03052046042967 
_cell_angle_gamma                 89.9087551630273 
loop_ 
_atom_site_label 
_atom_site_type_symbol 
_atom_site_fract_x 
_atom_site_fract_y 
_atom_site_fract_z 
_atom_site_charge 
N1          N  0.65539576  0.19422498  0.86756956    -0.27200
N2          N  0.64651655  0.19774288  0.84722426    -0.35000
C3          C  0.64576640  0.22019103  0.84315006     0.01200
C4          C  0.65493988  0.23137587  0.86159316     0.07200
C5          C  0.66101191  0.21442797  0.87672927    -0.05900
H6          H  0.63996959  0.22776078  0.82742995     0.07900
H7          H  0.66891025  0.21661542  0.89316501     0.09100
Cu8        Cu  0.63911292  0.17208952  0.82421554     0.44200
Cu9        Cu  0.65951430  0.16192190  0.88169260     0.42000
Cu10       Cu  0.65994032  0.11687577  0.84024451     0.43900
N11         N  0.64214909  0.14522188  0.80161212    -0.34600
N12         N  0.65145944  0.12558298  0.80723158    -0.28800
C13         C  0.65509938  0.11336522  0.78829482    -0.04900
C14         C  0.64730580  0.12573345  0.76995031     0.07300
C15         C  0.63914765  0.14580768  0.77896962     0.01100
H16         H  0.66360077  0.09709730  0.78783737     0.08800
H17         H  0.63338506  0.16053138  0.76959446     0.07800
N18         N  0.66343949  0.11131282  0.87480790    -0.36000
N19         N  0.66244245  0.12759713  0.89022331    -0.28200
C20         C  0.66356065  0.11808942  0.91100781    -0.03400
C21         C  0.66579645  0.09477980  0.90850736     0.05200
C22         C  0.66551019  0.09115435  0.88530173     0.03300
H23         H  0.66281466  0.12747128  0.92685303     0.08400
H24         H  0.66599202  0.07494002  0.87664228     0.07200
N25         N  0.87975102  0.19494936  0.64177982    -0.27200
N26         N  0.85982759  0.19898951  0.63224281    -0.35000
C27         C  0.85753168  0.22148353  0.62892737     0.01200
C28         C  0.87676397  0.23213596  0.63707073     0.07200
C29         C  0.89046106  0.21482748  0.64513830    -0.05900
H30         H  0.84225691  0.22960991  0.62272845     0.07900
H31         H  0.90666260  0.21661177  0.65356504     0.09100
Cu32       Cu  0.83474966  0.17452219  0.62873722     0.44200
Cu33       Cu  0.89086260  0.16271463  0.65126905     0.42000
Cu34       Cu  0.84779816  0.11923960  0.65232858     0.43900
N35         N  0.81035640  0.15015575  0.63583784    -0.34600
N36         N  0.81492648  0.13058906  0.64587290    -0.28800
C37         C  0.79526805  0.12049434  0.65163133    -0.04900
C38         C  0.77755303  0.13422211  0.64455803     0.07300
C39         C  0.78772302  0.15278967  0.63450715     0.01100
H40         H  0.79398076  0.10460343  0.66072297     0.08800
H41         H  0.77932059  0.16783121  0.62810648     0.07800
N42         N  0.88220693  0.11260623  0.65709586    -0.36000
N43         N  0.89792021  0.12859586  0.65743626    -0.28200
C44         C  0.91838904  0.11880719  0.66032873    -0.03400
C45         C  0.91546089  0.09552130  0.66168761     0.05200
C46         C  0.89230777  0.09222735  0.65941859     0.03300
H47         H  0.93434993  0.12788315  0.66027178     0.08400
H48         H  0.88351085  0.07615280  0.65901584     0.07200
N49         N  0.81687725  0.35591506  0.86602993    -0.27200
N50         N  0.81387953  0.36720996  0.84687377    -0.35000
C51         C  0.79155622  0.37094231  0.84382893     0.01200
C52         C  0.78000032  0.36121948  0.86178499     0.07200
C53         C  0.79656608  0.35185250  0.87551971    -0.05900
H54         H  0.78418781  0.37828994  0.82867496     0.07900
H55         H  0.79399064  0.34181798  0.89068694     0.09100
Cu56       Cu  0.83956196  0.37160642  0.82326666     0.44200
Cu57       Cu  0.84820385  0.34444842  0.87705748     0.42000
Cu58       Cu  0.89245581  0.34157691  0.83469815     0.43900
N59         N  0.86351429  0.36401589  0.79864119    -0.34600
N60         N  0.88196832  0.35174437  0.80234124    -0.28800
C61         C  0.89149812  0.34660088  0.78217891    -0.04900
C62         C  0.87854947  0.35634553  0.76510293     0.07300
C63         C  0.86105126  0.36731294  0.77618462     0.01100
H64         H  0.90639530  0.33606690  0.78007597     0.08800
H65         H  0.84667470  0.37572599  0.76841923     0.07800
N66         N  0.89788816  0.33528357  0.86918974    -0.36000
N67         N  0.88156954  0.33642929  0.88453980    -0.28200
C68         C  0.89060069  0.33387392  0.90534301    -0.03400
C69         C  0.91380280  0.33114097  0.90310891     0.05200
C70         C  0.91778878  0.33185015  0.87991894     0.03300
H71         H  0.88103982  0.33486951  0.92098859     0.08400
H72         H  0.93412503  0.33136348  0.87158484     0.07200
N73         N  0.65525527  0.29312255  0.85872129    -0.27200
N74         N  0.67486274  0.28940968  0.86897848    -0.35000
C75         C  0.67734112  0.26695511  0.87253627     0.01200
C76         C  0.65854388  0.25601308  0.86374631     0.07200
C77         C  0.64495855  0.27309280  0.85502994    -0.05900
H78         H  0.69234839  0.25907756  0.87965820     0.07900
H79         H  0.62893715  0.27107677  0.84631463     0.09100
Cu80       Cu  0.69880999  0.31477353  0.87363346     0.44200
Cu81       Cu  0.64389782  0.32536913  0.84969102     0.42000
Cu82       Cu  0.68615404  0.36963007  0.84728444     0.43900
N83         N  0.72254895  0.34021407  0.86840336    -0.34600
N84         N  0.71840609  0.35944589  0.85754218    -0.28800
C85         C  0.73816805  0.37035757  0.85409310    -0.04900
C86         C  0.75542428  0.35749912  0.86351175     0.07300
C87         C  0.74491734  0.33859572  0.87248718     0.01100
H88         H  0.73988875  0.38619647  0.84497292     0.08800
H89         H  0.75309219  0.32399773  0.88008380     0.07800
N90         N  0.65172869  0.37546103  0.84188293    -0.36000
N91         N  0.63623765  0.35932818  0.84347883    -0.28200
C92         C  0.61550183  0.36881975  0.84206162    -0.03400
C93         C  0.61803463  0.39197300  0.83905992     0.05200
C94         C  0.64123040  0.39559189  0.83905364     0.03300
H95         H  0.59973216  0.35967248  0.84395970     0.08400
H96         H  0.64978193  0.41182293  0.83855325     0.07200
N97         N  0.87596516  0.29399276  0.63748404    -0.27200
N98         N  0.88698865  0.28973545  0.65658088    -0.35000
C99         C  0.89004366  0.26719908  0.65860763     0.01200
C100        C  0.88010615  0.25670410  0.64013695     0.07200
C101        C  0.87124862  0.27416971  0.62711842    -0.05900
H102        H  0.89738778  0.25896069  0.67331229     0.07900
H103        H  0.86157408  0.27255809  0.61159258     0.09100
Cu104      Cu  0.89265429  0.31402438  0.68142984     0.44200
Cu105      Cu  0.86708981  0.32667274  0.62717171     0.42000
Cu106      Cu  0.86649711  0.36923630  0.67109945     0.43900
N107        N  0.88687582  0.33793069  0.70665205    -0.34600
N108        N  0.87604599  0.35732127  0.70320536    -0.28800
C109        C  0.87200782  0.36715103  0.72345561    -0.04900
C110        C  0.88097881  0.35345888  0.74035665     0.07300
C111        C  0.89032458  0.33512994  0.72908086     0.01100
H112        H  0.86279799  0.38286655  0.72574163     0.08800
H113        H  0.89778813  0.32015466  0.73669254     0.07800
N114        N  0.86066625  0.37668172  0.63682786    -0.36000
N115        N  0.86141826  0.36102215  0.62075264    -0.28200
C116        C  0.85875901  0.37108795  0.60039502    -0.03400
C117        C  0.85607481  0.39422345  0.60369945     0.05200
C118        C  0.85720290  0.39711051  0.62705492     0.03300
H119        H  0.85897601  0.36221867  0.58430916     0.08400
H120        H  0.85640750  0.41305235  0.63621114     0.07200
N121        N  0.71581967  0.13397648  0.64678783    -0.27200
N122        N  0.72064569  0.12336212  0.66598812    -0.35000
C123        C  0.74330922  0.12117557  0.66779185     0.01200
C124        C  0.75318366  0.13117477  0.64899794     0.07200
C125        C  0.73528904  0.13922183  0.63610446    -0.05900
H126        H  0.75198536  0.11376880  0.68220976     0.07900
H127        H  0.73632950  0.14815540  0.62009381     0.09100
Cu128      Cu  0.69632714  0.11504071  0.69014936     0.44200
Cu129      Cu  0.68294228  0.13988320  0.63548066     0.42000
Cu130      Cu  0.63817447  0.12824668  0.67550257     0.43900
N131        N  0.67002226  0.11618964  0.71361264    -0.34600
N132        N  0.64911087  0.12250738  0.70845023    -0.28800
C133        C  0.63736913  0.12585030  0.72775171    -0.04900
C134        C  0.65144589  0.12094405  0.74586383     0.07300
C135        C  0.67196223  0.11480962  0.73632234     0.01100
H136        H  0.62018663  0.13227341  0.72854356     0.08800
H137        H  0.68768821  0.11156781  0.74525892     0.07800
N138        N  0.63254240  0.13371230  0.64120072    -0.36000
N139        N  0.64884206  0.13870210  0.62663784    -0.28200
C140        C  0.63976336  0.14086701  0.60580035    -0.03400
C141        C  0.61665284  0.13700871  0.60727797     0.05200
C142        C  0.61272098  0.13237609  0.62998268     0.03300
H143        H  0.64950513  0.14417908  0.59046507     0.08400
H144        H  0.59664259  0.12823811  0.63776316     0.07200
N145        N  0.21792849  0.35059666  0.86455222    -0.27200
N146        N  0.22232259  0.36140632  0.84536602    -0.35000
C147        C  0.24489421  0.36325008  0.84287023     0.01200
C148        C  0.25524817  0.35285947  0.86116370     0.07200
C149        C  0.23769425  0.34489784  0.87455532    -0.05900
H150        H  0.25315901  0.37083552  0.82834007     0.07900
H151        H  0.23916358  0.33578728  0.89045219     0.09100
Cu152      Cu  0.19791092  0.37072015  0.82175250     0.44200
Cu153      Cu  0.18515074  0.34499992  0.87640483     0.42000
Cu154      Cu  0.14058485  0.35549213  0.83511094     0.43900
N155        N  0.17213525  0.37050435  0.79777783    -0.34600
N156        N  0.15139086  0.36336510  0.80235512    -0.28800
C157        C  0.13990984  0.36103031  0.78272335    -0.04900
C158        C  0.15396848  0.36745622  0.76503433     0.07300
C159        C  0.17424370  0.37340076  0.77520494     0.01100
H160        H  0.12291392  0.35426623  0.78134234     0.08800
H161        H  0.18996110  0.37755073  0.76668238     0.07800
N162        N  0.13453848  0.34902795  0.86937599    -0.36000
N163        N  0.15074139  0.34493793  0.88436332    -0.28200
C164        C  0.14125864  0.34177003  0.90491112    -0.03400
C165        C  0.11789334  0.34380343  0.90282160     0.05200
C166        C  0.11435091  0.34860506  0.88003200     0.03300
H167        H  0.15080467  0.33881420  0.92031814     0.08400
H168        H  0.09822594  0.35146884  0.87174722     0.07200
N169        N  0.21440563  0.13057401  0.64779087    -0.27200
N170        N  0.21939098  0.14979330  0.63736367    -0.35000
C171        C  0.24171891  0.14994816  0.63254067     0.01200
C172        C  0.25115680  0.13000464  0.64063915     0.07200
C173        C  0.23339499  0.11819203  0.65026826    -0.05900
H174        H  0.25068867  0.16421110  0.62525301     0.07900
H175        H  0.23431283  0.10210898  0.65906950     0.09100
Cu176      Cu  0.19624597  0.17630598  0.63424231     0.44200
Cu177      Cu  0.18225384  0.12232867  0.65900601     0.42000
Cu178      Cu  0.14080876  0.16665875  0.66136708     0.43900
N179        N  0.17239713  0.20167180  0.64034275    -0.34600
N180        N  0.15311874  0.19844191  0.65141307    -0.28800
C181        C  0.14328473  0.21874724  0.65514440    -0.04900
C182        C  0.15677529  0.23545726  0.64567343     0.07300
C183        C  0.17503241  0.22402813  0.63636964     0.01100
H184        H  0.12760153  0.22119716  0.66434828     0.08800
H185        H  0.18981161  0.23151471  0.62847320     0.07800
N186        N  0.13284951  0.13252080  0.66697721    -0.36000
N187        N  0.14839129  0.11638172  0.66577100    -0.28200
C188        C  0.13828929  0.09602380  0.66723048    -0.03400
C189        C  0.11522101  0.09933189  0.66973192     0.05200
C190        C  0.11232248  0.12272391  0.66953044     0.03300
H191        H  0.14698121  0.07995374  0.66549000     0.08400
H192        H  0.09637532  0.13183723  0.66963820     0.07200
N193        N  0.37552717  0.19211026  0.86634441    -0.27200
N194        N  0.38484451  0.19601847  0.84631141    -0.35000
C195        C  0.38842723  0.21844115  0.84406219     0.01200
C196        C  0.38065774  0.22911365  0.86346173     0.07200
C197        C  0.37249387  0.21196243  0.87718693    -0.05900
H198        H  0.39478380  0.22649940  0.82883451     0.07900
H199        H  0.36453463  0.21379575  0.89363558     0.09100
Cu200      Cu  0.38832369  0.17127700  0.82147069     0.44200
Cu201      Cu  0.36723258  0.15998312  0.87781448     0.42000
Cu202      Cu  0.36380541  0.11638568  0.83512767     0.43900
N203        N  0.38198176  0.14612520  0.79763037    -0.34600
N204        N  0.37160263  0.12681249  0.80238335    -0.28800
C205        C  0.36715487  0.11578227  0.78288507    -0.04900
C206        C  0.37542839  0.12862458  0.76509919     0.07300
C207        C  0.38478963  0.14768204  0.77502537     0.01100
H208        H  0.35827832  0.09977544  0.78173797     0.08800
H209        H  0.39187053  0.16225000  0.76637718     0.07800
N210        N  0.36198584  0.10983721  0.86971443    -0.36000
N211        N  0.36386762  0.12583671  0.88533339    -0.28200
C212        C  0.36451387  0.11610780  0.90597255    -0.03400
C213        C  0.36282034  0.09288121  0.90321100     0.05200
C214        C  0.36104160  0.08948456  0.88004001     0.03300
H215        H  0.36636633  0.12525564  0.92180178     0.08400
H216        H  0.36005955  0.07336984  0.87130095     0.07200
N217        N  0.38177258  0.29069549  0.86248604    -0.27200
N218        N  0.36304061  0.28707236  0.87427838    -0.35000
C219        C  0.36065159  0.26464445  0.87767596     0.01200
C220        C  0.37848257  0.25364477  0.86715427     0.07200
C221        C  0.39154184  0.27062805  0.85766433    -0.05900
H222        H  0.34598491  0.25683088  0.88545442     0.07900
H223        H  0.40655286  0.26852973  0.84731069     0.09100
Cu224      Cu  0.33857410  0.31173227  0.87997018     0.44200
Cu225      Cu  0.39241952  0.32262732  0.85236956     0.42000
Cu226      Cu  0.34891095  0.36525766  0.85173201     0.43900
N227        N  0.31326133  0.33511406  0.87269746    -0.34600
N228        N  0.31689884  0.35384910  0.86089159    -0.28800
C229        C  0.29683402  0.36333520  0.85559472    -0.04900
C230        C  0.27978261  0.35009578  0.86472211     0.07300
C231        C  0.29077153  0.33239655  0.87555121     0.01100
H232        H  0.29480528  0.37847318  0.84539633     0.08800
H233        H  0.28298466  0.31782392  0.88353039     0.07800
N234        N  0.38309470  0.37260615  0.84773033    -0.36000
N235        N  0.39906906  0.35686368  0.84801117    -0.28200
C236        C  0.41948402  0.36695178  0.84723814    -0.03400
C237        C  0.41626691  0.39024318  0.84665734     0.05200
C238        C  0.39293804  0.39316707  0.84670693     0.03300
H239        H  0.43547032  0.35792554  0.84753890     0.08400
H240        H  0.38381161  0.40910238  0.84707246     0.07200
N241        N  0.31258360  0.12511555  0.63808667    -0.27200
N242        N  0.30836310  0.11555700  0.65795630    -0.35000
C243        C  0.28581730  0.11457626  0.66105952     0.01200
C244        C  0.27535674  0.12439696  0.64251224     0.07200
C245        C  0.29278770  0.13095579  0.62826316    -0.05900
H246        H  0.27771794  0.10900405  0.67657638     0.07900
H247        H  0.29125273  0.14008466  0.61239905     0.09100
Cu248      Cu  0.33279551  0.10990185  0.68266684     0.44200
Cu249      Cu  0.34512449  0.13156636  0.62641644     0.42000
Cu250      Cu  0.38702393  0.13514142  0.67111531     0.43900
N251        N  0.35676136  0.11642147  0.70761435    -0.34600
N252        N  0.37602082  0.12709517  0.70346916    -0.28800
C253        C  0.38605299  0.13234900  0.72328093    -0.04900
C254        C  0.37257427  0.12435744  0.74070586     0.07300
C255        C  0.35419576  0.11426516  0.73020755     0.01100
H256        H  0.40164563  0.14186876  0.72487262     0.08800
H257        H  0.33926967  0.10740015  0.73838996     0.07800
N258        N  0.39461366  0.13855309  0.63700798    -0.36000
N259        N  0.37945467  0.13646810  0.62059097    -0.28200
C260        C  0.39016213  0.13718765  0.60045372    -0.03400
C261        C  0.41306791  0.14022924  0.60445217     0.05200
C262        C  0.41530946  0.14098159  0.62777883     0.03300
H263        H  0.38196283  0.13518373  0.58415429     0.08400
H264        H  0.43094652  0.14205354  0.63735984     0.07200
N265        N  0.15642001  0.29732853  0.64182329    -0.27200
N266        N  0.14651949  0.29422605  0.66172401    -0.35000
C267        C  0.14436984  0.27183935  0.66560648     0.01200
C268        C  0.15368366  0.26022191  0.64748556     0.07200
C269        C  0.16126623  0.27688763  0.63273278    -0.05900
H270        H  0.13775976  0.26455710  0.68112052     0.07900
H271        H  0.16994131  0.27434627  0.61674653     0.09100
Cu272      Cu  0.14022660  0.32023763  0.68460763     0.44200
Cu273      Cu  0.16335949  0.32950059  0.62872217     0.42000
Cu274      Cu  0.16206743  0.37557668  0.67007686     0.43900
N275        N  0.14419083  0.34620592  0.70803289    -0.34600
N276        N  0.15368254  0.36593697  0.70316336    -0.28800
C277        C  0.15776704  0.37712769  0.72270744    -0.04900
C278        C  0.15006543  0.36395288  0.74059304     0.07300
C279        C  0.14152433  0.34453559  0.73065011     0.01100
H280        H  0.16643443  0.39325401  0.72387209     0.08800
H281        H  0.13560616  0.32948739  0.73933069     0.07800
N282        N  0.16833442  0.38022140  0.63546416    -0.36000
N283        N  0.16838733  0.36356457  0.62039149    -0.28200
C284        C  0.17222826  0.37234570  0.59961698    -0.03400
C285        C  0.17511678  0.39559629  0.60168656     0.05200
C286        C  0.17236684  0.39995168  0.62466343     0.03300
H287        H  0.17301049  0.36250269  0.58413961     0.08400
H288        H  0.17275430  0.41637822  0.63290376     0.07200
N289        N  0.37990039  0.79171855  0.87208887    -0.27200
N290        N  0.38972133  0.78766485  0.85231906    -0.35000
C291        C  0.39112743  0.76512412  0.84913476     0.01200
C292        C  0.38140133  0.75444625  0.86758732     0.07200
C293        C  0.37435974  0.77178431  0.88180592    -0.05900
H294        H  0.39742676  0.75713796  0.83383747     0.07900
H295        H  0.36555104  0.77005967  0.89782923     0.09100
Cu296      Cu  0.39627709  0.81255342  0.82836749     0.44200
Cu297      Cu  0.37402588  0.82436875  0.88417419     0.42000
Cu298      Cu  0.37236193  0.86761454  0.84048505     0.43900
N299        N  0.39013612  0.83688177  0.80371261    -0.34600
N300        N  0.37961685  0.85627594  0.80786557    -0.28800
C301        C  0.37438268  0.86627862  0.78798410    -0.04900
C302        C  0.38235953  0.85268061  0.77057765     0.07300
C303        C  0.39232257  0.83425657  0.78114065     0.01100
H304        H  0.36507794  0.88202893  0.78632536     0.08800
H305        H  0.39916985  0.81927407  0.77300695     0.07800
N306        N  0.36971684  0.87458809  0.87498188    -0.36000
N307        N  0.37088867  0.85886943  0.89097224    -0.28200
C308        C  0.36990301  0.86899345  0.91143571    -0.03400
C309        C  0.36764996  0.89215367  0.90817932     0.05200
C310        C  0.36770182  0.89508185  0.88485102     0.03300
H311        H  0.37062528  0.86013418  0.92751033     0.08400
H312        H  0.36686991  0.91099494  0.87570143     0.07200
N313        N  0.15223248  0.79075114  0.64312613    -0.27200
N314        N  0.17179936  0.78722949  0.63274845    -0.35000
C315        C  0.17482446  0.76483050  0.62973984     0.01200
C316        C  0.15646329  0.75363499  0.63896605     0.07200
C317        C  0.14245303  0.77055003  0.64736778    -0.05900
H318        H  0.19010646  0.75720231  0.62298717     0.07900
H319        H  0.12671789  0.76831566  0.65655251     0.09100
Cu320      Cu  0.19596809  0.81215725  0.62806822     0.44200
Cu321      Cu  0.14083576  0.82301864  0.65194948     0.42000
Cu322      Cu  0.18491952  0.86593982  0.65517908     0.43900
N323        N  0.22105742  0.83549722  0.63542743    -0.34600
N324        N  0.21736923  0.85446484  0.64684954    -0.28800
C325        C  0.23750833  0.86377635  0.65227451    -0.04900
C326        C  0.25456867  0.85010590  0.64360282     0.07300
C327        C  0.24351969  0.83241165  0.63295789     0.01100
H328        H  0.23958371  0.87903081  0.66227200     0.08800
H329        H  0.25123139  0.81755870  0.62538753     0.07800
N330        N  0.15036566  0.87305331  0.65829124    -0.36000
N331        N  0.13433939  0.85744845  0.65664256    -0.28200
C332        C  0.11391929  0.86767919  0.65738507    -0.03400
C333        C  0.11717331  0.89084691  0.65966481     0.05200
C334        C  0.14050599  0.89359573  0.66038201     0.03300
H335        H  0.09786882  0.85888320  0.65613384     0.08400
H336        H  0.14962870  0.90944384  0.66145913     0.07200
N337        N  0.21542206  0.64004831  0.87065020    -0.27200
N338        N  0.21831574  0.62729239  0.85241754    -0.35000
C339        C  0.24048229  0.62228510  0.85023296     0.01200
C340        C  0.25212990  0.63264139  0.86777403     0.07200
C341        C  0.23572645  0.64376531  0.88038524    -0.05900
H342        H  0.24775858  0.61325807  0.83598148     0.07900
H343        H  0.23843280  0.65446200  0.89506269     0.09100
Cu344      Cu  0.19290862  0.62174540  0.82876183     0.44200
Cu345      Cu  0.18411319  0.65305383  0.88035943     0.42000
Cu346      Cu  0.14080553  0.65410458  0.83701714     0.43900
N347        N  0.16943195  0.62785487  0.80329753    -0.34600
N348        N  0.15133678  0.64094173  0.80574915    -0.28800
C349        C  0.14215630  0.64467110  0.78512054    -0.04900
C350        C  0.15496063  0.63318654  0.76905896     0.07300
C351        C  0.17201146  0.62264510  0.78121787     0.01100
H352        H  0.12768684  0.65553335  0.78196567     0.08800
H353        H  0.18625026  0.61328646  0.77434948     0.07800
N354        N  0.13470936  0.66268880  0.87094443    -0.36000
N355        N  0.15066154  0.66222450  0.88671026    -0.28200
C356        C  0.14121745  0.66643156  0.90707687    -0.03400
C357        C  0.11810506  0.66987329  0.90418371     0.05200
C358        C  0.11467028  0.66726658  0.88095748     0.03300
H359        H  0.15037071  0.66552658  0.92297166     0.08400
H360        H  0.09860969  0.66780196  0.87207334     0.07200
N361        N  0.31381709  0.62998925  0.86490494    -0.27200
N362        N  0.31090839  0.64891892  0.87664768    -0.35000
C363        C  0.28863136  0.65202973  0.88043744     0.01200
C364        C  0.27689853  0.63443933  0.87033902     0.07200
C365        C  0.29336637  0.62077711  0.86062397    -0.05900
H366        H  0.28142407  0.66688141  0.88850174     0.07900
H367        H  0.29065819  0.60564123  0.85059493     0.09100
Cu368      Cu  0.33632823  0.67246536  0.88272003     0.44200
Cu369      Cu  0.34539526  0.61811931  0.85424835     0.42000
Cu370      Cu  0.38906924  0.66053428  0.85434744     0.43900
N371        N  0.36081259  0.69695743  0.87658792    -0.34600
N372        N  0.37929761  0.69283971  0.86456669    -0.28800
C373        C  0.38977225  0.71259877  0.86011747    -0.04900
C374        C  0.37748746  0.72992852  0.87011465     0.07300
C375        C  0.35927664  0.71942294  0.88050019     0.01100
H376        H  0.40495393  0.71426578  0.84995075     0.08800
H377        H  0.34514942  0.72762769  0.88889023     0.07800
N378        N  0.39553293  0.62625867  0.84912554    -0.36000
N379        N  0.37948665  0.61062132  0.84858026    -0.28200
C380        C  0.38927071  0.59003600  0.84652709    -0.03400
C381        C  0.41259926  0.59287274  0.84597261     0.05200
C382        C  0.41591664  0.61605024  0.84775436     0.03300
H383        H  0.38016472  0.57411335  0.84678940     0.08400
H384        H  0.43200348  0.62478776  0.84874315     0.07200
N385        N  0.15961552  0.62952071  0.70741026    -0.27200
N386        N  0.14800520  0.64860779  0.70967481    -0.35000
C387        C  0.14357821  0.65213931  0.73179255     0.01200
C388        C  0.15308281  0.63461196  0.74414530     0.07200
C389        C  0.16315417  0.62057220  0.72816558    -0.05900
H390        H  0.13547647  0.66720960  0.73849493     0.07900
H391        H  0.17295948  0.60538945  0.73143636     0.09100
Cu392      Cu  0.14288084  0.67151472  0.68351446     0.44200
Cu393      Cu  0.17116762  0.61753217  0.67612290     0.42000
Cu394      Cu  0.17419034  0.66036035  0.63210306     0.43900
N395        N  0.14887926  0.69583571  0.65889097    -0.34600
N396        N  0.16173561  0.69218276  0.64086877    -0.28800
C397        C  0.16558054  0.71209690  0.63039924    -0.04900
C398        C  0.15440208  0.72899926  0.64229063     0.07300
C399        C  0.14391578  0.71808341  0.66018479     0.01100
H400        H  0.17634522  0.71421269  0.61567753     0.08800
H401        H  0.13484697  0.72593951  0.67409001     0.07800
N402        N  0.18036342  0.62611334  0.62636544    -0.36000
N403        N  0.17890130  0.61036759  0.64229044    -0.28200
C404        C  0.18124334  0.58981136  0.63256354    -0.03400
C405        C  0.18416212  0.59272014  0.60935519     0.05200
C406        C  0.18376506  0.61600932  0.60616151     0.03300
H407        H  0.18029969  0.57391910  0.64170576     0.08400
H408        H  0.18454023  0.62489941  0.59013078     0.07200
N409        N  0.31627052  0.84675325  0.64509792    -0.27200
N410        N  0.31223908  0.85823331  0.66398167    -0.35000
C411        C  0.28980210  0.86199537  0.66579981     0.01200
C412        C  0.27915658  0.85214488  0.64737888     0.07200
C413        C  0.29640700  0.84255135  0.63463926    -0.05900
H414        H  0.28173187  0.87013664  0.68015276     0.07900
H415        H  0.29463562  0.83298307  0.61905474     0.09100
Cu416      Cu  0.33664832  0.86488643  0.68847357     0.44200
Cu417      Cu  0.34864435  0.83746139  0.63435129     0.42000
Cu418      Cu  0.39258800  0.84320360  0.67642598     0.43900
N419        N  0.36155766  0.86091200  0.71305546    -0.34600
N420        N  0.38149558  0.85150714  0.70885357    -0.28800
C421        C  0.39225858  0.84775640  0.72865126    -0.04900
C422        C  0.37860329  0.85554185  0.74607427     0.07300
C423        C  0.35931107  0.86384322  0.73560529     0.01100
H424        H  0.40857134  0.83947835  0.73026939     0.08800
H425        H  0.34411412  0.87004663  0.74385287     0.07800
N426        N  0.39913545  0.83688351  0.64234717    -0.36000
N427        N  0.38304477  0.83424803  0.62694489    -0.28200
C428        C  0.39276984  0.83130618  0.60646446    -0.03400
C429        C  0.41614665  0.83212955  0.60906929     0.05200
C430        C  0.41948227  0.83584562  0.63207122     0.03300
H431        H  0.38345183  0.82981682  0.59070432     0.08400
H432        H  0.43554348  0.83803663  0.64066820     0.07200
N433        N  0.88269452  0.78992969  0.65122921    -0.27200
N434        N  0.86244717  0.78497431  0.64290835    -0.35000
C435        C  0.86037979  0.76232164  0.64132963     0.01200
C436        C  0.88007644  0.75247791  0.64934974     0.07200
C437        C  0.89384793  0.77042209  0.65564359    -0.05900
H438        H  0.84521245  0.75362960  0.63575038     0.07900
H439        H  0.91071729  0.76938436  0.66282099     0.09100
Cu440      Cu  0.83709309  0.80870278  0.63693668     0.44200
Cu441      Cu  0.89411640  0.82316809  0.65542662     0.42000
Cu442      Cu  0.85059874  0.86671859  0.64849624     0.43900
N443        N  0.81263534  0.83393770  0.63945097    -0.34600
N444        N  0.81743423  0.85507132  0.64521311    -0.28800
C445        C  0.79789673  0.86643369  0.64874675    -0.04900
C446        C  0.78001751  0.85182298  0.64452188     0.07300
C447        C  0.78997287  0.83140947  0.63861999     0.01100
H448        H  0.79679154  0.88391931  0.65424140     0.08800
H449        H  0.78139286  0.81553413  0.63531935     0.07800
N450        N  0.88514209  0.87358225  0.65107249    -0.36000
N451        N  0.90090377  0.85790989  0.65437237    -0.28200
C452        C  0.92125062  0.86815647  0.65607442    -0.03400
C453        C  0.91820161  0.89132566  0.65337145     0.05200
C454        C  0.89508473  0.89411131  0.65028827     0.03300
H455        H  0.93713837  0.85937754  0.65886432     0.08400
H456        H  0.88605266  0.90996611  0.64817125     0.07200
N457        N  0.65739496  0.78915977  0.87096098    -0.27200
N458        N  0.64879557  0.78524007  0.85058131    -0.35000
C459        C  0.64775121  0.76271032  0.84720075     0.01200
C460        C  0.65643097  0.75199801  0.86617041     0.07200
C461        C  0.66247380  0.76921649  0.88088575    -0.05900
H462        H  0.64221323  0.75475935  0.83159954     0.07900
H463        H  0.67010536  0.76741349  0.89750730     0.09100
Cu464      Cu  0.64247264  0.81024650  0.82653165     0.44200
Cu465      Cu  0.66200189  0.82139364  0.88422105     0.42000
Cu466      Cu  0.66085720  0.86581350  0.84159449     0.43900
N467        N  0.64675627  0.83605274  0.80291209    -0.34600
N468        N  0.65535430  0.85603022  0.80830700    -0.28800
C469        C  0.65966955  0.86772205  0.78916208    -0.04900
C470        C  0.65301393  0.85460317  0.77088382     0.07300
C471        C  0.64483931  0.83468061  0.78019223     0.01100
H472        H  0.66736428  0.88436959  0.78859092     0.08800
H473        H  0.63935233  0.81972976  0.77107463     0.07800
N474        N  0.66206264  0.87178221  0.87619079    -0.36000
N475        N  0.66281108  0.85570834  0.89183572    -0.28200
C476        C  0.66306433  0.86545630  0.91249001    -0.03400
C477        C  0.66237747  0.88876847  0.90962140     0.05200
C478        C  0.66160536  0.89213124  0.88642573     0.03300
H479        H  0.66317168  0.85622635  0.92839110     0.08400
H480        H  0.66081404  0.90820339  0.87760862     0.07200
N481        N  0.87910949  0.63628566  0.81318143    -0.27200
N482        N  0.86174738  0.62234094  0.81045457    -0.35000
C483        C  0.85923287  0.61773684  0.78819037     0.01200
C484        C  0.87559985  0.62953452  0.77624935     0.07200
C485        C  0.88789177  0.64110645  0.79264087    -0.05900
H486        H  0.84557103  0.60773382  0.78111692     0.07900
H487        H  0.90180201  0.65271515  0.78979449     0.09100
Cu488      Cu  0.83933187  0.61392780  0.83628776     0.44200
Cu489      Cu  0.88942386  0.64911484  0.84465323     0.42000
Cu490      Cu  0.84855273  0.64327892  0.88941476     0.43900
N491        N  0.81450231  0.61776216  0.86096726    -0.34600
N492        N  0.81759173  0.62977654  0.87967454    -0.28800
C493        C  0.79738831  0.63350014  0.88955932    -0.04900
C494        C  0.78081344  0.62315945  0.87660491     0.07300
C495        C  0.79225309  0.61319152  0.85868935     0.01100
H496        H  0.79481934  0.64412947  0.90431950     0.08800
H497        H  0.78474223  0.60527928  0.84390819     0.07800
N498        N  0.88129363  0.65482973  0.89491329    -0.36000
N499        N  0.89636501  0.65728114  0.87849314    -0.28200
C500        C  0.91635767  0.66332341  0.88776513    -0.03400
C501        C  0.91378088  0.66471313  0.91117295     0.05200
C502        C  0.89128975  0.65912805  0.91495998     0.03300
H503        H  0.93198896  0.66508981  0.87827203     0.08400
H504        H  0.88289558  0.65742851  0.93137715     0.07200
N505        N  0.87307726  0.62749437  0.71407530    -0.27200
N506        N  0.88515100  0.64612945  0.71747298    -0.35000
C507        C  0.88841726  0.64907738  0.73986217     0.01200
C508        C  0.87774341  0.63171163  0.75134631     0.07200
C509        C  0.86811798  0.61831870  0.73449899    -0.05900
H510        H  0.89693996  0.66354404  0.74727651     0.07900
H511        H  0.85798517  0.60322719  0.73692968     0.09100
Cu512      Cu  0.89358428  0.66959628  0.69269613     0.44200
Cu513      Cu  0.86366709  0.61576685  0.68157350     0.42000
Cu514      Cu  0.87052197  0.65868299  0.63820166     0.43900
N515        N  0.89031462  0.69470857  0.66831449    -0.34600
N516        N  0.88019846  0.69086597  0.64867845    -0.28800
C517        C  0.87606233  0.71082299  0.63840281    -0.04900
C518        C  0.88431656  0.72802588  0.65206824     0.07300
C519        C  0.89334098  0.71721559  0.67087238     0.01100
H520        H  0.86678848  0.71273287  0.62266159     0.08800
H521        H  0.89963581  0.72519928  0.68617016     0.07800
N522        N  0.86241917  0.62517022  0.63105511    -0.36000
N523        N  0.85922673  0.60931399  0.64662660    -0.28200
C524        C  0.85447742  0.58956104  0.63595262    -0.03400
C525        C  0.85488610  0.59322533  0.61259275     0.05200
C526        C  0.86011551  0.61598691  0.61028358     0.03300
H527        H  0.85179350  0.57353337  0.64450689     0.08400
H528        H  0.86228275  0.62521352  0.59456965     0.07200
N529        N  0.71921086  0.62407281  0.87278340    -0.27200
N530        N  0.72314571  0.64391975  0.88247732    -0.35000
C531        C  0.74549877  0.64593633  0.88644357     0.01200
C532        C  0.75619866  0.62660984  0.87854967     0.07200
C533        C  0.73906538  0.61311895  0.86990462    -0.05900
H534        H  0.75354410  0.66107972  0.89297794     0.07900
H535        H  0.74094567  0.59688248  0.86153322     0.09100
Cu536      Cu  0.69899606  0.66938515  0.88527821     0.44200
Cu537      Cu  0.68706749  0.61361105  0.86292696     0.42000
Cu538      Cu  0.64587579  0.65825159  0.85610668     0.43900
N539        N  0.67554973  0.69434609  0.87704475    -0.34600
N540        N  0.65703953  0.69039518  0.86498419    -0.28800
C541        C  0.64719909  0.71028849  0.85967877    -0.04900
C542        C  0.65992362  0.72752245  0.86913482     0.07300
C543        C  0.67773092  0.71687161  0.88009416     0.01100
H544        H  0.63202528  0.71206800  0.84949544     0.08800
H545        H  0.69191201  0.72493162  0.88851218     0.07800
N546        N  0.63798664  0.62412599  0.85289211    -0.36000
N547        N  0.65305138  0.60776837  0.85593086    -0.28200
C548        C  0.64243559  0.58761781  0.85499383    -0.03400
C549        C  0.61958146  0.59145647  0.85116338     0.05200
C550        C  0.61739673  0.61479988  0.84971276     0.03300
H551        H  0.65069552  0.57138675  0.85736742    -0.06000
H552        H  0.60183991  0.62432293  0.84759376     0.07200
N553        N  0.71825938  0.85336756  0.64525578    -0.27200
N554        N  0.72288270  0.86381090  0.66461464    -0.35000
C555        C  0.74553352  0.86596539  0.66667658     0.01200
C556        C  0.75564692  0.85606924  0.64795566     0.07200
C557        C  0.73789752  0.84814365  0.63480999    -0.05900
H558        H  0.75404876  0.87274615  0.68147483     0.07900
H559        H  0.73917809  0.83883928  0.61902523     0.09100
Cu560      Cu  0.69876438  0.87046172  0.68954651     0.44200
Cu561      Cu  0.68548001  0.84598518  0.63398633     0.42000
Cu562      Cu  0.64224400  0.85038917  0.67655181     0.43900
N563        N  0.67357798  0.86622149  0.71390780    -0.34600
N564        N  0.65346201  0.85746059  0.70925382    -0.28800
C565        C  0.64267589  0.85285763  0.72884062    -0.04900
C566        C  0.65647566  0.85938926  0.74664012     0.07300
C567        C  0.67588878  0.86788510  0.73659841     0.01100
H568        H  0.62633615  0.84461092  0.73003861     0.08800
H569        H  0.69126837  0.87310301  0.74515663     0.07800
N570        N  0.63512040  0.84458265  0.64246967    -0.36000
N571        N  0.65095999  0.84260374  0.62672357    -0.28200
C572        C  0.64085037  0.83968410  0.60638794    -0.03400
C573        C  0.61749937  0.84016367  0.60942578     0.05200
C574        C  0.61458646  0.84310089  0.63260871     0.03300
H575        H  0.64981421  0.83818610  0.59042861     0.08400
H576        H  0.59869451  0.84424113  0.64170760     0.07200
N577        N  0.22235682  0.63888853  0.13980237    -0.27200
N578        N  0.22523064  0.62664219  0.15840331    -0.35000
C579        C  0.24741569  0.62196659  0.16099643     0.01200
C580        C  0.25915944  0.63204435  0.14340026     0.07200
C581        C  0.24276093  0.64261356  0.13025694    -0.05900
H582        H  0.25463833  0.61360247  0.17568237     0.07900
H583        H  0.24555285  0.65311859  0.11545857     0.09100
Cu584      Cu  0.20011223  0.62184497  0.18244857     0.44200
Cu585      Cu  0.19097219  0.65170810  0.12961297     0.42000
Cu586      Cu  0.14741405  0.65209298  0.17271827     0.43900
N587        N  0.17666488  0.62857562  0.20772280    -0.34600
N588        N  0.15801494  0.64063081  0.20441236    -0.28800
C589        C  0.14841137  0.64503927  0.22464700    -0.04900
C590        C  0.16158062  0.63518588  0.24143795     0.07300
C591        C  0.17929792  0.62481513  0.23010369     0.01100
H592        H  0.13341585  0.65537505  0.22700275     0.08800
H593        H  0.19386937  0.61653053  0.23763972     0.07800
N594        N  0.14128522  0.66044857  0.13894583    -0.36000
N595        N  0.15729240  0.66049470  0.12324363    -0.28200
C596        C  0.14773513  0.66471866  0.10292851    -0.03400
C597        C  0.12447634  0.66707874  0.10580945     0.05200
C598        C  0.12112445  0.66457258  0.12898848     0.03300
H599        H  0.15707309  0.66533166  0.08713833     0.08400
H600        H  0.10502711  0.66442878  0.13779604     0.07200
N601        N  0.14996208  0.79875325  0.35924916    -0.27200
N602        N  0.16869572  0.79445002  0.37087705    -0.35000
C603        C  0.17022552  0.77199539  0.37456096     0.01200
C604        C  0.15183404  0.76156896  0.36448056     0.07200
C605        C  0.13935134  0.77899233  0.35481286    -0.05900
H606        H  0.18443505  0.76373112  0.38276108     0.07900
H607        H  0.12385778  0.77741315  0.34507674     0.09100
Cu608      Cu  0.19376968  0.81823864  0.37769896     0.44200
Cu609      Cu  0.13985506  0.83143387  0.35022593     0.42000
Cu610      Cu  0.18371929  0.87406100  0.35608767     0.43900
N611        N  0.21937597  0.84211908  0.37381756    -0.34600
N612        N  0.21583323  0.86212333  0.36429282    -0.28800
C613        C  0.23593826  0.87221360  0.36051415    -0.04900
C614        C  0.25291424  0.85806165  0.36844538     0.07300
C615        C  0.24183116  0.83915664  0.37683595     0.01100
H616        H  0.23806314  0.88841383  0.35215344     0.08800
H617        H  0.24958565  0.82373988  0.38314525     0.07800
N618        N  0.14978251  0.88168344  0.35049202    -0.36000
N619        N  0.13381288  0.86619097  0.34773219    -0.28200
C620        C  0.11371304  0.87673018  0.34499702    -0.03400
C621        C  0.11714580  0.89993931  0.34643955     0.05200
C622        C  0.14025113  0.90242441  0.34981732     0.03300
H623        H  0.09764699  0.86811329  0.34292018     0.08400
H624        H  0.14949728  0.91815939  0.35173808     0.07200
N625        N  0.38333428  0.79225071  0.14121645    -0.27200
N626        N  0.39341155  0.78770090  0.16079194    -0.35000
C627        C  0.39708805  0.76521576  0.16226415     0.01200
C628        C  0.38858788  0.75505670  0.14292135     0.07200
C629        C  0.37992646  0.77264909  0.12997503    -0.05900
H630        H  0.40373794  0.75670995  0.17714239     0.07900
H631        H  0.37109250  0.77123189  0.11393383     0.09100
Cu632      Cu  0.39729033  0.81103043  0.18691287     0.44200
Cu633      Cu  0.37361230  0.82475735  0.13096233     0.42000
Cu634      Cu  0.37652233  0.86706513  0.17475731     0.43900
N635        N  0.39094520  0.83510222  0.21185903    -0.34600
N636        N  0.38212767  0.85524390  0.20735857    -0.28800
C637        C  0.37671403  0.86560123  0.22696898    -0.04900
C638        C  0.38275575  0.85143530  0.24465181     0.07300
C639        C  0.39180319  0.83228254  0.23451639     0.01100
H640        H  0.36857139  0.88201683  0.22822322     0.08800
H641        H  0.39726876  0.81688722  0.24292893     0.07800
N642        N  0.37034381  0.87476114  0.14103986    -0.36000
N643        N  0.36841354  0.85928430  0.12491711    -0.28200
C644        C  0.36443228  0.86985614  0.10501214    -0.03400
C645        C  0.36396056  0.89310171  0.10884154     0.05200
C646        C  0.36793696  0.89549870  0.13185930     0.03300
H647        H  0.36299860  0.86131632  0.08880880     0.08400
H648        H  0.36923523  0.91126548  0.14127255     0.07200
N649        N  0.32082565  0.63080267  0.14793029    -0.27200
N650        N  0.31775005  0.64988865  0.13648382    -0.35000
C651        C  0.29550165  0.65259372  0.13220244     0.01200
C652        C  0.28394003  0.63451801  0.14159390     0.07200
C653        C  0.30048606  0.62105004  0.15149625    -0.05900
H654        H  0.28816509  0.66737203  0.12411002     0.07900
H655        H  0.29788679  0.60560192  0.16106792     0.09100
Cu656      Cu  0.34304455  0.67354444  0.13042487     0.44200
Cu657      Cu  0.35252743  0.61934552  0.15887312     0.42000
Cu658      Cu  0.39733407  0.66119942  0.15495034     0.43900
N659        N  0.36837392  0.69765310  0.13396229    -0.34600
N660        N  0.38783016  0.69342407  0.14429469    -0.28800
C661        C  0.39869363  0.71315537  0.14795099    -0.04900
C662        C  0.38556101  0.73057067  0.13921115     0.07300
C663        C  0.36652858  0.72012594  0.13036490     0.01100
H664        H  0.41441861  0.71480125  0.15728470     0.08800
H665        H  0.35152911  0.72841638  0.12375774     0.07800
N666        N  0.40284209  0.62748151  0.16360474    -0.36000
N667        N  0.38657708  0.61216763  0.16551657    -0.28200
C668        C  0.39606312  0.59189607  0.17036704    -0.03400
C669        C  0.41940451  0.59457905  0.17121569     0.05200
C670        C  0.42302625  0.61737733  0.16695579     0.03300
H671        H  0.38677988  0.57618774  0.17202986     0.08400
H672        H  0.43921029  0.62592909  0.16583827     0.07200
N673        N  0.37974546  0.85150145  0.30626451    -0.27200
N674        N  0.36101407  0.86284909  0.30128111    -0.35000
C675        C  0.35972448  0.86543460  0.27860917     0.01200
C676        C  0.37833235  0.85488893  0.26894067     0.07200
C677        C  0.39062244  0.84620160  0.28691566    -0.05900
H678        H  0.34557020  0.87311715  0.26975500     0.07900
H679        H  0.40612787  0.83639988  0.28599918     0.09100
Cu680      Cu  0.33602629  0.87034367  0.32502278     0.44200
Cu681      Cu  0.38953193  0.84302158  0.33900049     0.42000
Cu682      Cu  0.34695567  0.84991273  0.38208581     0.43900
N683        N  0.31098292  0.86664834  0.34956258    -0.34600
N684        N  0.31470703  0.85768882  0.36982690    -0.28800
C685        C  0.29462094  0.85377681  0.37998041    -0.04900
C686        C  0.27752742  0.86101912  0.36558861     0.07300
C687        C  0.28849553  0.86916752  0.34653053     0.01100
H688        H  0.29259920  0.84576767  0.39638536     0.08800
H689        H  0.28065341  0.87495429  0.33094585     0.07800
N690        N  0.38080975  0.84266367  0.38927699    -0.36000
N691        N  0.39625484  0.83929752  0.37335584    -0.28200
C692        C  0.41649633  0.83549837  0.38325052    -0.03400
C693        C  0.41371470  0.83681212  0.40651539     0.05200
C694        C  0.39090320  0.84141916  0.40974680     0.03300
H695        H  0.43227361  0.83317736  0.37416745     0.08400
H696        H  0.38239612  0.84423400  0.42578601     0.07200
N697        N  0.16460253  0.63595823  0.30327922    -0.27200
N698        N  0.15092536  0.65336423  0.29938144    -0.35000
C699        C  0.14707153  0.65501020  0.27696368     0.01200
C700        C  0.15906981  0.63805814  0.26612261     0.07200
C701        C  0.17003090  0.62627173  0.28327810    -0.05900
H702        H  0.13738086  0.66846286  0.26904968     0.07900
H703        H  0.18148552  0.61204386  0.28134440     0.09100
Cu704      Cu  0.14139687  0.67716789  0.32343964     0.44200
Cu705      Cu  0.17555452  0.62649342  0.33561020     0.42000
Cu706      Cu  0.16431808  0.66859904  0.37875113     0.43900
N707        N  0.14349248  0.70299035  0.34719107    -0.34600
N708        N  0.15325371  0.70002010  0.36717047    -0.28800
C709        C  0.15650409  0.72038420  0.37691966    -0.04900
C710        C  0.14817438  0.73695073  0.36249286     0.07300
C711        C  0.13991941  0.72532366  0.34383735     0.01100
H712        H  0.16540554  0.72301655  0.39276333     0.08800
H713        H  0.13382368  0.73265539  0.32812548     0.07800
N714        N  0.17437267  0.63556832  0.38598128    -0.36000
N715        N  0.17923703  0.62028556  0.37027289    -0.28200
C716        C  0.18386885  0.60036053  0.38052705    -0.03400
C717        C  0.18140812  0.60315442  0.40376325     0.05200
C718        C  0.17553120  0.62574227  0.40656313     0.03300
H719        H  0.18735494  0.58467066  0.37167510     0.08400
H720        H  0.17167226  0.63427486  0.42237627     0.07200
N721        N  0.64707076  0.78574409  0.14215419    -0.27200
N722        N  0.64032837  0.78114364  0.16309162    -0.35000
C723        C  0.64081086  0.75855517  0.16629871     0.01200
C724        C  0.64865197  0.74841915  0.14667047     0.07200
C725        C  0.65254612  0.76611859  0.13171072    -0.05900
H726        H  0.63722541  0.75023838  0.18228243     0.07900
H727        H  0.65925494  0.76486364  0.11465811     0.09100
Cu728      Cu  0.63545368  0.80539894  0.18821807     0.44200
Cu729      Cu  0.64952387  0.81868882  0.12920372     0.42000
Cu730      Cu  0.65190273  0.86168758  0.17275831     0.43900
N731        N  0.64128235  0.83094227  0.21179387    -0.34600
N732        N  0.64892717  0.85118724  0.20597514    -0.28800
C733        C  0.65415304  0.86295894  0.22479323    -0.04900
C734        C  0.64919507  0.84959308  0.24336162     0.07300
C735        C  0.64098711  0.82943739  0.23458679     0.01100
H736        H  0.66113990  0.87992404  0.22491534     0.08800
H737        H  0.63632080  0.81439455  0.24401333     0.07800
N738        N  0.65143456  0.86897319  0.13855252    -0.36000
N739        N  0.65067469  0.85347720  0.12235251    -0.28200
C740        C  0.65085707  0.86410368  0.10208628    -0.03400
C741        C  0.65149166  0.88736744  0.10583621     0.05200
C742        C  0.65198468  0.88972270  0.12917177     0.03300
H743        H  0.65056226  0.85556627  0.08584591     0.08400
H744        H  0.65328094  0.90534874  0.13873358     0.07200
N745        N  0.87583354  0.80284726  0.37005860    -0.27200
N746        N  0.85563265  0.79999563  0.37939466    -0.35000
C747        C  0.85179554  0.77765014  0.38220790     0.01200
C748        C  0.87026113  0.76579518  0.37389375     0.07200
C749        C  0.88514929  0.78229336  0.36625622    -0.05900
H750        H  0.83596495  0.77051431  0.38812966     0.07900
H751        H  0.90121371  0.77952807  0.35781363     0.09100
Cu752      Cu  0.83206920  0.82600076  0.38298642     0.44200
Cu753      Cu  0.88884035  0.83467949  0.36130886     0.42000
Cu754      Cu  0.84647716  0.87890057  0.35555056     0.43900
N755        N  0.80863895  0.85138289  0.37583288    -0.34600
N756        N  0.81363972  0.86998520  0.36432750    -0.28800
C757        C  0.79430970  0.88099688  0.35910465    -0.04900
C758        C  0.77636834  0.86890792  0.36808779     0.07300
C759        C  0.78603598  0.85030807  0.37864628     0.01100
H760        H  0.79336788  0.89634636  0.34906622     0.08800
H761        H  0.77719034  0.83620005  0.38635073     0.07800
N762        N  0.88092801  0.88442538  0.35130910    -0.36000
N763        N  0.89655989  0.86851646  0.35389785    -0.28200
C764        C  0.91718536  0.87813557  0.35188815    -0.03400
C765        C  0.91437499  0.90113386  0.34757458     0.05200
C766        C  0.89112983  0.90444957  0.34742793     0.03300
H767        H  0.93306617  0.86915199  0.35383557     0.08400
H768        H  0.88224201  0.92044668  0.34575528     0.07200
N769        N  0.87945781  0.64006855  0.20872742    -0.27200
N770        N  0.86092704  0.62772874  0.21149736    -0.35000
C771        C  0.85663582  0.62550375  0.23380897     0.01200
C772        C  0.87298564  0.63725137  0.24577817     0.07200
C773        C  0.88720418  0.64631151  0.22936018    -0.05900
H774        H  0.84176516  0.61728907  0.24073921     0.07900
H775        H  0.90171479  0.65716440  0.23218093     0.09100
Cu776      Cu  0.83919117  0.61857262  0.18538442     0.44200
Cu777      Cu  0.89232290  0.64887084  0.17673612     0.42000
Cu778      Cu  0.85129498  0.64252285  0.13103803     0.43900
N779        N  0.81514225  0.62119500  0.15983177    -0.34600
N780        N  0.81912493  0.63165890  0.14039758    -0.28800
C781        C  0.79930801  0.63488411  0.12947147    -0.04900
C782        C  0.78212841  0.62566155  0.14254042     0.07300
C783        C  0.79279214  0.61703116  0.16159150     0.01100
H784        H  0.79744301  0.64405749  0.11366636     0.08800
H785        H  0.78467792  0.61010346  0.17653411     0.07800
N786        N  0.88514055  0.65083032  0.12586526    -0.36000
N787        N  0.90014052  0.65368407  0.14234737    -0.28200
C788        C  0.92046195  0.65847632  0.13297254    -0.03400
C789        C  0.91811083  0.65833223  0.10954711     0.05200
C790        C  0.89552305  0.65341162  0.10570514     0.03300
H791        H  0.93598503  0.66099760  0.14245574     0.08400
H792        H  0.88728369  0.65149266  0.08938624     0.07200
N793        N  0.72049519  0.62415700  0.14408341    -0.27200
N794        N  0.72383349  0.64420303  0.13451598    -0.35000
C795        C  0.74622758  0.64708416  0.13108879     0.01200
C796        C  0.75750744  0.62817187  0.13926264     0.07200
C797        C  0.74069804  0.61403959  0.14744976    -0.05900
H798        H  0.75385497  0.66256806  0.12485561     0.07900
H799        H  0.74302738  0.59794603  0.15598708     0.09100
Cu800      Cu  0.69861603  0.66881137  0.13107547     0.44200
Cu801      Cu  0.68885455  0.61179547  0.15358968     0.42000
Cu802      Cu  0.64540588  0.65410850  0.15804875     0.43900
N803        N  0.67281974  0.69221469  0.13741605    -0.34600
N804        N  0.65410600  0.68694881  0.14861162    -0.28800
C805        C  0.64236636  0.70605309  0.15293440    -0.04900
C806        C  0.65398633  0.72418119  0.14368268     0.07300
C807        C  0.67320283  0.71482435  0.13391980     0.01100
H808        H  0.62672350  0.70674212  0.16250473     0.08800
H809        H  0.68713163  0.72392718  0.12619776     0.07800
N810        N  0.63940590  0.61975044  0.16320320    -0.36000
N811        N  0.65526759  0.60402762  0.16105368    -0.28200
C812        C  0.64575627  0.58343536  0.16378915    -0.03400
C813        C  0.62278454  0.58637085  0.16792692     0.05200
C814        C  0.61944481  0.60962927  0.16758758     0.03300
H815        H  0.65487807  0.56752695  0.16274862     0.08400
H816        H  0.60349962  0.61850943  0.16961853     0.07200
N817        N  0.86504222  0.63948697  0.30721599    -0.27200
N818        N  0.87643872  0.65851675  0.30383580    -0.35000
C819        C  0.88183909  0.66016184  0.28167641     0.01200
C820        C  0.87319697  0.64143824  0.27048824     0.07200
C821        C  0.86259596  0.62873122  0.28718487    -0.05900
H822        H  0.89033125  0.67454811  0.27407730     0.07900
H823        H  0.85349665  0.61297032  0.28488896     0.09100
Cu824      Cu  0.88109817  0.68309737  0.32872662     0.44200
Cu825      Cu  0.85336167  0.62902727  0.33904124     0.42000
Cu826      Cu  0.85584098  0.67155429  0.38339825     0.43900
N827        N  0.87644945  0.70775384  0.35354328    -0.34600
N828        N  0.86570521  0.70397600  0.37288754    -0.28800
C829        C  0.86235145  0.72398817  0.38348458    -0.04900
C830        C  0.87184061  0.74104769  0.37037585     0.07300
C831        C  0.88067741  0.73011151  0.35158451     0.01100
H832        H  0.85333355  0.72602408  0.39935348     0.08800
H833        H  0.88827657  0.73799697  0.33685358     0.07800
N834        N  0.84944666  0.63718966  0.38955960    -0.36000
N835        N  0.84777732  0.62176146  0.37332015    -0.28200
C836        C  0.84470470  0.60120164  0.38291140    -0.03400
C837        C  0.84480461  0.60371761  0.40630738     0.05200
C838        C  0.84782066  0.62677777  0.40986474     0.03300
H839        H  0.84381391  0.58540735  0.37359371     0.08400
H840        H  0.84939464  0.63527470  0.42607217     0.07200
N841        N  0.65159688  0.85509928  0.30469604    -0.27200
N842        N  0.66994491  0.86663012  0.29888290    -0.35000
C843        C  0.67143316  0.86712153  0.27609572     0.01200
C844        C  0.65341484  0.85499943  0.26728331     0.07200
C845        C  0.64122818  0.84756581  0.28582333    -0.05900
H846        H  0.68530420  0.87461161  0.26669740     0.07900
H847        H  0.62604158  0.83728081  0.28564801     0.09100
Cu848      Cu  0.69436882  0.87754029  0.32188720     0.44200
Cu849      Cu  0.64123739  0.84967251  0.33782640     0.42000
Cu850      Cu  0.68286029  0.86201375  0.38003877     0.43900
N851        N  0.71900512  0.87700152  0.34714507    -0.34600
N852        N  0.71487988  0.86983492  0.36801183    -0.28800
C853        C  0.73465094  0.86693450  0.37900103    -0.04900
C854        C  0.75204299  0.87292649  0.36451955     0.07300
C855        C  0.74156406  0.87934103  0.34449257     0.01100
H856        H  0.73627696  0.85999034  0.39593561     0.08800
H857        H  0.74979912  0.88337530  0.32857895     0.07800
N858        N  0.64957682  0.85411206  0.38781927    -0.36000
N859        N  0.63429250  0.84894418  0.37226098    -0.28200
C860        C  0.61438915  0.84467890  0.38254456    -0.03400
C861        C  0.61725054  0.84761687  0.40567689     0.05200
C862        C  0.63979990  0.85349980  0.40841663     0.03300
H863        H  0.59883210  0.84037610  0.37378517     0.08400
H864        H  0.64849964  0.85702847  0.42420794     0.07200
N865        N  0.87623178  0.35129830  0.19999532    -0.27200
N866        N  0.85771711  0.36371911  0.20246584    -0.35000
C867        C  0.85497303  0.36887792  0.22452990     0.01200
C868        C  0.87245187  0.35902048  0.23666454     0.07200
C869        C  0.88561359  0.34792506  0.22059739    -0.05900
H870        H  0.84049131  0.37785119  0.23139020     0.07900
H871        H  0.90059770  0.33775892  0.22370975     0.09100
Cu872      Cu  0.83453265  0.36883627  0.17664461     0.44200
Cu873      Cu  0.88677805  0.33929175  0.16837857     0.42000
Cu874      Cu  0.84369790  0.33859215  0.12395223     0.43900
N875        N  0.80901730  0.36143083  0.15377118    -0.34600
N876        N  0.81185518  0.34887676  0.13537655    -0.28800
C877        C  0.79131304  0.34360830  0.12684472    -0.04900
C878        C  0.77491703  0.35360940  0.14040941     0.07300
C879        C  0.78675801  0.36481491  0.15721470     0.01100
H880        H  0.78851487  0.33276077  0.11228600     0.08800
H881        H  0.77969034  0.37333835  0.17187718     0.07800
N882        N  0.87802038  0.33251183  0.11801116    -0.36000
N883        N  0.89355153  0.33272853  0.13422725    -0.28200
C884        C  0.91413957  0.33015784  0.12474615    -0.03400
C885        C  0.91160514  0.32812478  0.10142378     0.05200
C886        C  0.88839546  0.32975329  0.09780647     0.03300
H887        H  0.92990920  0.33053682  0.13410775     0.08400
H888        H  0.87974147  0.33025233  0.08159364     0.07200
N889        N  0.81742179  0.13470891  0.36460822    -0.27200
N890        N  0.81140312  0.15382961  0.37465474    -0.35000
C891        C  0.78892419  0.15335089  0.37858764     0.01200
C892        C  0.78052410  0.13305578  0.37030455     0.07200
C893        C  0.79901125  0.12170704  0.36149433    -0.05900
H894        H  0.77923826  0.16727930  0.38564698     0.07900
H895        H  0.79905191  0.10538999  0.35308588     0.09100
Cu896      Cu  0.83371287  0.18074742  0.37868167     0.44200
Cu897      Cu  0.85026921  0.12731237  0.35545610     0.42000
Cu898      Cu  0.89064271  0.17266269  0.35409561     0.43900
N899        N  0.85661294  0.20677401  0.37255327    -0.34600
N900        N  0.87647999  0.20408051  0.36241492    -0.28800
C901        C  0.88533198  0.22467809  0.35810244    -0.04900
C902        C  0.87048684  0.24102791  0.36613811     0.07300
C903        C  0.85253505  0.22908425  0.37526080     0.01100
H904        H  0.90116554  0.22753915  0.34929633     0.08800
H905        H  0.83697550  0.23609205  0.38205881     0.07800
N906        N  0.89968334  0.13862591  0.35026345    -0.36000
N907        N  0.88452304  0.12216356  0.35127540    -0.28200
C908        C  0.89510952  0.10202238  0.35044851    -0.03400
C909        C  0.91809880  0.10585643  0.34870485     0.05200
C910        C  0.92049076  0.12926161  0.34840209     0.03300
H911        H  0.88667089  0.08574689  0.35136092     0.08400
H912        H  0.93618863  0.13871437  0.34776403     0.07200
N913        N  0.66488722  0.12185040  0.21094539    -0.27200
N914        N  0.65283914  0.13988853  0.21671791    -0.35000
C915        C  0.64884911  0.13918214  0.23918410     0.01200
C916        C  0.65914360  0.11994135  0.24786020     0.07200
C917        C  0.66923200  0.10939931  0.22955797    -0.05900
H918        H  0.64022211  0.15234306  0.24867907     0.07900
H919        H  0.67915588  0.09395094  0.22974993     0.09100
Cu920      Cu  0.64553268  0.16619783  0.19438398     0.44200
Cu921      Cu  0.67440336  0.11459480  0.17808441     0.42000
Cu922      Cu  0.66458178  0.15800154  0.13638016     0.43900
N923        N  0.64811051  0.19226990  0.17078190    -0.34600
N924        N  0.65635596  0.18946355  0.15008395    -0.28800
C925        C  0.65919022  0.20994439  0.14040681    -0.04900
C926        C  0.65210005  0.22637499  0.15561185     0.07300
C927        C  0.64508995  0.21458613  0.17464259     0.01100
H928        H  0.66645501  0.21269082  0.12377081     0.08800
H929        H  0.63968199  0.22175512  0.19067196     0.07800
N930        N  0.67103451  0.12429714  0.12820857    -0.36000
N931        N  0.67552339  0.10864174  0.14364320    -0.28200
C932        C  0.67742263  0.08834362  0.13345611    -0.03400
C933        C  0.67383724  0.09129682  0.11048661     0.05200
C934        C  0.66970823  0.11427298  0.10773096     0.03300
H935        H  0.67967321  0.07238962  0.14233870     0.08400
H936        H  0.66524282  0.12289857  0.09214122     0.07200
N937        N  0.65164127  0.28815991  0.15889597    -0.27200
N938        N  0.66877923  0.28472533  0.14481892    -0.35000
C939        C  0.67086049  0.26236301  0.14082624     0.01200
C940        C  0.65450779  0.25110825  0.15324224     0.07200
C941        C  0.64264825  0.26793973  0.16458480    -0.05900
H942        H  0.68421699  0.25476633  0.13075402     0.07900
H943        H  0.62874298  0.26564788  0.17633840     0.09100
Cu944      Cu  0.69146382  0.30975138  0.13521393     0.44200
Cu945      Cu  0.64168600  0.32032049  0.16973900     0.42000
Cu946      Cu  0.68302950  0.36459688  0.16142477     0.43900
N947        N  0.71650255  0.33430100  0.13710965    -0.34600
N948        N  0.71375123  0.35379852  0.14788318    -0.28800
C949        C  0.73398592  0.36411937  0.14973143    -0.04900
C950        C  0.75018455  0.35058205  0.13945102     0.07300
C951        C  0.73851355  0.33185174  0.13154320     0.01100
H952        H  0.73683847  0.37985294  0.15873936     0.08800
H953        H  0.74574211  0.31675102  0.12398611     0.07800
N954        N  0.65008682  0.37083508  0.17233182    -0.36000
N955        N  0.63486590  0.35460709  0.17508504    -0.28200
C956        C  0.61465951  0.36416673  0.17975958    -0.03400
C957        C  0.61729354  0.38751379  0.18007310     0.05200
C958        C  0.64000663  0.39113248  0.17542346     0.03300
H959        H  0.59900068  0.35485092  0.18185129     0.08400
H960        H  0.64826064  0.40733322  0.17305901     0.07200
N961        N  0.65632069  0.11377278  0.30891357    -0.27200
N962        N  0.67684033  0.10565170  0.30496914    -0.35000
C963        C  0.68032361  0.10502580  0.28241769     0.01200
C964        C  0.66121583  0.11357988  0.27181153     0.07200
C965        C  0.64634600  0.11896269  0.28907379    -0.05900
H966        H  0.69637888  0.10091950  0.27448067     0.07900
H967        H  0.63006539  0.12729139  0.28743680     0.09100
Cu968      Cu  0.70112071  0.10269643  0.33020971     0.44200
Cu969      Cu  0.64431212  0.12091609  0.34096154     0.42000
Cu970      Cu  0.68661740  0.13122626  0.38355753     0.43900
N971        N  0.72460660  0.11340643  0.35406196    -0.34600
N972        N  0.71948276  0.12512778  0.37253337    -0.28800
C973        C  0.73870878  0.13330841  0.38170354    -0.04900
C974        C  0.75670854  0.12617144  0.36849614     0.07300
C975        C  0.74721061  0.11349910  0.35123702     0.01100
H976        H  0.73943222  0.14426958  0.39641050     0.08800
H977        H  0.75590731  0.10641437  0.33667688     0.07800
N978        N  0.65207549  0.13402379  0.38964209    -0.36000
N979        N  0.63666878  0.12955319  0.37397546    -0.28200
C980        C  0.61593259  0.13104952  0.38321901    -0.03400
C981        C  0.61833694  0.13706404  0.40573670     0.05200
C982        C  0.64147738  0.13876542  0.40931920     0.03300
H983        H  0.60027002  0.12751075  0.37432037     0.08400
H984        H  0.64998281  0.14207348  0.42525705     0.07200
N985        N  0.86492530  0.30266650  0.36464142    -0.27200
N986        N  0.87863625  0.29912342  0.34722910    -0.35000
C987        C  0.88346879  0.27687523  0.34582921     0.01200
C988        C  0.87202987  0.26575404  0.36296666     0.07200
C989        C  0.86038470  0.28258230  0.37457667    -0.05900
H990        H  0.89331798  0.26918599  0.33235299     0.07900
H991        H  0.84907425  0.28034050  0.38885478     0.09100
Cu992      Cu  0.88611925  0.32343579  0.32309045     0.44200
Cu993      Cu  0.85283975  0.33480122  0.37343292     0.42000
Cu994      Cu  0.85831741  0.37753812  0.32961739     0.43900
N995        N  0.88077794  0.34554128  0.29636880    -0.34600
N996        N  0.86911723  0.36463160  0.29830054    -0.28800
C997        C  0.86498415  0.37281538  0.27733133    -0.04900
C998        C  0.87476956  0.35830272  0.26157947     0.07300
C999        C  0.88469301  0.34126733  0.27427721     0.01100
H1000       H  0.85501804  0.38782941  0.27378073     0.08800
H1001       H  0.89269467  0.32601072  0.26788927     0.07800
N1002       N  0.85039015  0.38511578  0.36345253    -0.36000
N1003       N  0.84765985  0.36937108  0.37922989    -0.28200
C1004       C  0.84382187  0.37955965  0.39934861    -0.03400
C1005       C  0.84451188  0.40286475  0.39629870     0.05200
C1006       C  0.84862749  0.40573410  0.37325243     0.03300
H1007       H  0.84199206  0.37066100  0.41531370     0.08400
H1008       H  0.85076290  0.42165077  0.36435082     0.07200
N1009       N  0.15419652  0.35995877  0.19977409    -0.27200
N1010       N  0.17291369  0.37181127  0.20298110    -0.35000
C1011       C  0.17461575  0.37722598  0.22510812     0.01200
C1012       C  0.15611007  0.36815713  0.23629369     0.07200
C1013       C  0.14352634  0.35734514  0.21972637    -0.05900
H1014       H  0.18909152  0.38556032  0.23271861     0.07900
H1015       H  0.12827668  0.34744016  0.22213060     0.09100
Cu1016     Cu  0.19703052  0.37578549  0.17781862     0.44200
Cu1017     Cu  0.14505326  0.34669073  0.16866799     0.42000
Cu1018     Cu  0.18812539  0.34456679  0.12492923     0.43900
N1019       N  0.22227847  0.36894657  0.15444570    -0.34600
N1020       N  0.21969493  0.35608804  0.13620768    -0.28800
C1021       C  0.24037473  0.35105222  0.12782951    -0.04900
C1022       C  0.25656244  0.36148528  0.14132583     0.07300
C1023       C  0.24445281  0.37278363  0.15786454     0.01100
H1024       H  0.24343675  0.33971696  0.11369781     0.08800
H1025       H  0.25131989  0.38127900  0.17263304     0.07800
N1026       N  0.15371595  0.33860154  0.11886717    -0.36000
N1027       N  0.13821448  0.33948556  0.13506182    -0.28200
C1028       C  0.11749791  0.33772333  0.12575392    -0.03400
C1029       C  0.11991080  0.33574942  0.10250653     0.05200
C1030       C  0.14313174  0.33606534  0.09873092     0.03300
H1031       H  0.10179049  0.33873136  0.13519308     0.08400
H1032       H  0.15160239  0.33589283  0.08244335     0.07200
N1033       N  0.37116025  0.12820839  0.20782052    -0.27200
N1034       N  0.38497022  0.14535711  0.21206292    -0.35000
C1035       C  0.38880745  0.14651709  0.23452365     0.01200
C1036       C  0.37660734  0.12949254  0.24498633     0.07200
C1037       C  0.36557701  0.11819812  0.22758880    -0.05900
H1038       H  0.39839787  0.15983050  0.24276217     0.07900
H1039       H  0.35386577  0.10418757  0.22922334     0.09100
Cu1040     Cu  0.39380788  0.16960420  0.18826845     0.44200
Cu1041     Cu  0.36002498  0.11998372  0.17533907     0.42000
Cu1042     Cu  0.36879062  0.16380885  0.13310161     0.43900
N1043       N  0.38982729  0.19653983  0.16610004    -0.34600
N1044       N  0.37917408  0.19472002  0.14643704    -0.28800
C1045       C  0.37480832  0.21565268  0.13841255    -0.04900
C1046       C  0.38334598  0.23133124  0.15367944     0.07300
C1047       C  0.39287558  0.21862915  0.17094160     0.01100
H1048       H  0.36511758  0.21918687  0.12321658     0.08800
H1049       H  0.39955387  0.22495346  0.18684710     0.07800
N1050       N  0.36030220  0.13053942  0.12520829    -0.36000
N1051       N  0.35625226  0.11474654  0.14063345    -0.28200
C1052       C  0.35261637  0.09483736  0.13006225    -0.03400
C1053       C  0.35466310  0.09821102  0.10689772     0.05200
C1054       C  0.35966291  0.12102021  0.10445828     0.03300
H1055       H  0.35026424  0.07878545  0.13867577     0.08400
H1056       H  0.36342293  0.12985282  0.08881950     0.07200
N1057       N  0.21405286  0.13749477  0.36226779    -0.27200
N1058       N  0.21800748  0.15753074  0.37145819    -0.35000
C1059       C  0.24033826  0.15937538  0.37580098     0.01200
C1060       C  0.25081564  0.13960334  0.36865624     0.07200
C1061       C  0.23367735  0.12613810  0.36014930    -0.05900
H1062       H  0.24854877  0.17465304  0.38181617     0.07900
H1063       H  0.23545095  0.10976392  0.35203980     0.09100
Cu1064     Cu  0.19344423  0.18265535  0.37226126     0.44200
Cu1065     Cu  0.18256291  0.12772074  0.35095633     0.42000
Cu1066     Cu  0.14131089  0.17147698  0.33944904     0.43900
N1067       N  0.17017444  0.20716960  0.36254630    -0.34600
N1068       N  0.15234472  0.20364321  0.34933426    -0.28800
C1069       C  0.14284791  0.22384054  0.34425981    -0.04900
C1070       C  0.15513444  0.24069032  0.35507111     0.07300
C1071       C  0.17223918  0.22950763  0.36650667     0.01100
H1072       H  0.12812626  0.22607813  0.33351068     0.08800
H1073       H  0.18584512  0.23710939  0.37619353     0.07800
N1074       N  0.13418475  0.13686211  0.33739760    -0.36000
N1075       N  0.14947921  0.12113628  0.34214415    -0.28200
C1076       C  0.13956662  0.10067792  0.34224807    -0.03400
C1077       C  0.11685350  0.10350648  0.33739215     0.05200
C1078       C  0.11400035  0.12664402  0.33413004     0.03300
H1079       H  0.14816829  0.08496343  0.34636463     0.08400
H1080       H  0.09821051  0.13547655  0.33101529     0.07200
N1081       N  0.37713839  0.13049302  0.30672989    -0.27200
N1082       N  0.35717367  0.12107283  0.30288493    -0.35000
C1083       C  0.35446956  0.11814259  0.28040048     0.01200
C1084       C  0.37352542  0.12639750  0.26955909     0.07200
C1085       C  0.38753791  0.13415201  0.28673793    -0.05900
H1086       H  0.33906685  0.11205179  0.27246034     0.07900
H1087       H  0.40375106  0.14249995  0.28482001     0.09100
Cu1088     Cu  0.33270217  0.11749233  0.32779999     0.44200
Cu1089     Cu  0.38842859  0.13901031  0.33903801     0.42000
Cu1090     Cu  0.34475090  0.14596241  0.38129723     0.43900
N1091       N  0.30827995  0.12617926  0.35150114    -0.34600
N1092       N  0.31238828  0.13822298  0.37000046    -0.28800
C1093       C  0.29253669  0.14439433  0.37943589    -0.04900
C1094       C  0.27522132  0.13548309  0.36640529     0.07300
C1095       C  0.28576381  0.12397859  0.34892657     0.01100
H1096       H  0.29085921  0.15491936  0.39438880     0.08800
H1097       H  0.27766811  0.11596558  0.33450615     0.07800
N1098       N  0.37907685  0.14706093  0.38879059    -0.36000
N1099       N  0.39504029  0.14405805  0.37332410    -0.28200
C1100       C  0.41531645  0.14319701  0.38372737    -0.03400
C1101       C  0.41203265  0.14599161  0.40684570     0.05200
C1102       C  0.38880962  0.14835671  0.40941571     0.03300
H1103       H  0.43125285  0.14013770  0.37515156     0.08400
H1104       H  0.37948539  0.14964601  0.42528121     0.07200
N1105       N  0.15663645  0.30220603  0.35944543    -0.27200
N1106       N  0.14510817  0.29977929  0.34035328    -0.35000
C1107       C  0.14181702  0.27753971  0.33636930     0.01200
C1108       C  0.15198796  0.26540615  0.35369028     0.07200
C1109       C  0.16121831  0.28155821  0.36801155    -0.05900
H1110       H  0.13404694  0.27070923  0.32118533     0.07900
H1111       H  0.17120668  0.27852365  0.38312650     0.09100
Cu1112     Cu  0.13898531  0.32640388  0.31834103     0.44200
Cu1113     Cu  0.16707158  0.33348524  0.37184492     0.42000
Cu1114     Cu  0.16958523  0.37839129  0.32996502     0.43900
N1115       N  0.14546636  0.35107391  0.29430224    -0.34600
N1116       N  0.15821223  0.36915217  0.29794949    -0.28800
C1117       C  0.16312375  0.37888554  0.27786535    -0.04900
C1118       C  0.15276002  0.36637687  0.26091080     0.07300
C1119       C  0.14161290  0.34901638  0.27194813     0.01100
H1120       H  0.17423224  0.39332465  0.27571530     0.08800
H1121       H  0.13308569  0.33474503  0.26418298     0.07800
N1122       N  0.17533923  0.38340209  0.36434488    -0.36000
N1123       N  0.17434226  0.36705913  0.37968148    -0.28200
C1124       C  0.17696643  0.37618284  0.40045534    -0.03400
C1125       C  0.17981484  0.39941997  0.39811197     0.05200
C1126       C  0.17858248  0.40333057  0.37494984     0.03300
H1127       H  0.17566497  0.36670667  0.41612508     0.08400
H1128       H  0.17933002  0.41958642  0.36643507     0.07200
N1129       N  0.38070588  0.29254103  0.16229631    -0.27200
N1130       N  0.36224625  0.28914668  0.14997457    -0.35000
C1131       C  0.36091515  0.26708190  0.14440002     0.01200
C1132       C  0.37924671  0.25594544  0.15381971     0.07200
C1133       C  0.39141991  0.27252873  0.16515961    -0.05900
H1134       H  0.34702636  0.25953865  0.13504324     0.07900
H1135       H  0.40680917  0.27020083  0.17489548     0.09100
Cu1136     Cu  0.33808708  0.31371693  0.14308785     0.44200
Cu1137     Cu  0.39046154  0.32436219  0.17435942     0.42000
Cu1138     Cu  0.34753155  0.36826115  0.16775683     0.43900
N1139       N  0.31391463  0.33919807  0.14271889    -0.34600
N1140       N  0.31701368  0.35898172  0.15279447    -0.28800
C1141       C  0.29735818  0.37058711  0.15254361    -0.04900
C1142       C  0.28119074  0.35752679  0.14161015     0.07300
C1143       C  0.29230015  0.33777073  0.13552542     0.01100
H1144       H  0.29475139  0.38683932  0.16068522     0.08800
H1145       H  0.28478870  0.32274215  0.12814707     0.07800
N1146       N  0.38055693  0.37450741  0.17831964    -0.36000
N1147       N  0.39629302  0.35867820  0.18083748    -0.28200
C1148       C  0.41629935  0.36881826  0.18525962    -0.03400
C1149       C  0.41302718  0.39211954  0.18521052     0.05200
C1150       C  0.39011586  0.39503087  0.18096250     0.03300
H1151       H  0.43232477  0.35998511  0.18673170     0.08400
H1152       H  0.38123233  0.41095498  0.17875093     0.07200
O1153       O  0.49438296  0.51449944  0.16260098    -0.72800
O1154       O  0.53950452  0.46357766  0.16495489    -0.73800
O1155       O  0.49145521  0.46659105  0.16603472    -0.62400
O1156       O  0.54250165  0.51137792  0.16154787    -0.70800
O1157       O  0.54251506  0.51520706  0.19897594    -0.70400
O1158       O  0.49325941  0.46782572  0.20360239    -0.61600
O1159       O  0.54177104  0.46700155  0.20236568    -0.74100
O1160       O  0.49392201  0.51620735  0.20019285    -0.72900
Cu1161     Cu  0.51690513  0.48892768  0.16253043     1.04600
Cu1162     Cu  0.51788543  0.49166183  0.20263338     1.04300
C1163       C  0.48672463  0.52321849  0.18092828     0.93400
C1164       C  0.54814804  0.45750541  0.18390654     0.92500
C1165       C  0.48446261  0.45984573  0.18542857     0.84700
C1166       C  0.55053896  0.52050322  0.17950864     0.90900
O1167       O  0.20337141  0.52222144  0.47798895    -0.72800
O1168       O  0.20280282  0.47248295  0.52531725    -0.73800
O1169       O  0.20222681  0.47378943  0.47699608    -0.62400
O1170       O  0.20413682  0.52086000  0.52639955    -0.70800
O1171       O  0.16655665  0.52035291  0.52807552    -0.70400
O1172       O  0.16467788  0.47644403  0.47589705    -0.61600
O1173       O  0.16520454  0.47227813  0.52386543    -0.74100
O1174       O  0.16592864  0.52437725  0.47977847    -0.72900
Cu1175     Cu  0.20446503  0.49732803  0.50164527     1.04600
Cu1176     Cu  0.16429958  0.49842973  0.50193719     1.04300
C1177       C  0.18472690  0.53125165  0.47145259     0.93400
C1178       C  0.18378018  0.46423539  0.53167143     0.92500
C1179       C  0.18317794  0.46791186  0.46849938     0.84700
C1180       C  0.18561207  0.52774994  0.53530822     0.90900
O1181       O  0.53988098  0.15639301  0.48118140    -0.72800
O1182       O  0.49288412  0.15629304  0.53052950    -0.73800
O1183       O  0.54105950  0.15514607  0.52927211    -0.62400
O1184       O  0.49142619  0.15760752  0.48251065    -0.70800
O1185       O  0.49110437  0.12001978  0.48093856    -0.70400
O1186       O  0.53961635  0.11757095  0.52894359    -0.61600
O1187       O  0.49153157  0.11875491  0.52898469    -0.74100
O1188       O  0.53923908  0.11882192  0.48080744    -0.72900
Cu1189     Cu  0.51636312  0.15767735  0.50589266     1.04600
Cu1190     Cu  0.51536718  0.11750063  0.50487687     1.04300
C1191       C  0.54711469  0.13752497  0.47325613     0.93400
C1192       C  0.48449303  0.13748689  0.53730385     0.92500
C1193       C  0.54801981  0.13598264  0.53670987     0.84700
C1194       C  0.48339380  0.13919929  0.47433052     0.90900
O1195       O  0.82774850  0.52156061  0.53108666    -0.72800
O1196       O  0.82459608  0.47493187  0.48032756    -0.73800
O1197       O  0.82747695  0.47313508  0.52914592    -0.62400
O1198       O  0.82499119  0.52351671  0.48216556    -0.70800
O1199       O  0.86251829  0.52368941  0.48064435    -0.70400
O1200       O  0.86490713  0.47257492  0.52607359    -0.61600
O1201       O  0.86204474  0.47558511  0.47763184    -0.74100
O1202       O  0.86524219  0.52094472  0.52879730    -0.72900
Cu1203     Cu  0.82486703  0.49828578  0.50575329     1.04600
Cu1204     Cu  0.86491671  0.49815744  0.50323687     1.04300
C1205       C  0.84710941  0.52860167  0.53794128     0.93400
C1206       C  0.84287574  0.46811265  0.47076301     0.92500
C1207       C  0.84671260  0.46499104  0.53512076     0.84700
C1208       C  0.84342753  0.53152789  0.47394690     0.90900
O1209       O  0.53968467  0.85584485  0.48336193    -0.72800
O1210       O  0.49217092  0.85232709  0.53171685    -0.73800
O1211       O  0.54007374  0.85431902  0.53159343    -0.62400
O1212       O  0.49152429  0.85347595  0.48338298    -0.70800
O1213       O  0.49317483  0.81599002  0.48228850    -0.70400
O1214       O  0.54217770  0.81677938  0.53017763    -0.61600
O1215       O  0.49351995  0.81472416  0.53075684    -0.74100
O1216       O  0.54136411  0.81831855  0.48177967    -0.72900
Cu1217     Cu  0.51578960  0.85525489  0.50752472     1.04600
Cu1218     Cu  0.51761238  0.81512157  0.50622215     1.04300
C1219       C  0.54805401  0.83774910  0.47483332     0.93400
C1220       C  0.48545831  0.83310570  0.53907879     0.92500
C1221       C  0.54886241  0.83568773  0.53846284     0.84700
C1222       C  0.48467345  0.83461315  0.47508950     0.90900
O1223       O  0.53971255  0.46934981  0.82673122    -0.72800
O1224       O  0.49108985  0.51731681  0.82876723    -0.73800
O1225       O  0.53949014  0.51769921  0.82818508    -0.62400
O1226       O  0.49122613  0.46937127  0.82764201    -0.70800
O1227       O  0.49219354  0.46822079  0.86529938    -0.70400
O1228       O  0.54032528  0.51623915  0.86576612    -0.61600
O1229       O  0.49189609  0.51666428  0.86638226    -0.74100
O1230       O  0.54033119  0.46802461  0.86428733    -0.72900
Cu1231     Cu  0.51538441  0.49347500  0.82653432     1.04600
Cu1232     Cu  0.51620305  0.49227969  0.86673954     1.04300
C1233       C  0.54766497  0.46094204  0.84511375     0.93400
C1234       C  0.48371256  0.52453870  0.84784137     0.92500
C1235       C  0.54758436  0.52458217  0.84711683     0.84700
C1236       C  0.48405670  0.46127523  0.84644656     0.90900
O1237       O  0.99323573  0.02633777  0.36104695    -0.72800
O1238       O  0.04140771  0.97855828  0.36009619    -0.73800
O1239       O  0.04111620  0.02653201  0.35820343    -0.62400
O1240       O  0.99339665  0.97800193  0.36239054    -0.70800
O1241       O  0.99067806  0.97781568  0.32484781    -0.70400
O1242       O  0.03968927  0.02500921  0.32065214    -0.61600
O1243       O  0.03903989  0.97645962  0.32259456    -0.74100
O1244       O  0.99176907  0.02632926  0.32344614    -0.72900
Cu1245     Cu  0.01733304  0.00238567  0.36169958     1.04600
Cu1246     Cu  0.01520952  0.00131804  0.32154630     1.04300
C1247       C  0.98523261  0.03434091  0.34254784     0.93400
C1248       C  0.04780575  0.96979152  0.34134712     0.92500
C1249       C  0.04792090  0.03352225  0.33880669     0.84700
C1250       C  0.98447789  0.97021929  0.34420022     0.90900
O1251       O  0.99229605  0.01778991  0.68097190    -0.72800
O1252       O  0.04194782  0.97042755  0.68140849    -0.73800
O1253       O  0.04038149  0.01898229  0.68260841    -0.62400
O1254       O  0.99360159  0.96913481  0.67979615    -0.70800
O1255       O  0.99424766  0.97056834  0.64221125    -0.70400
O1256       O  0.04189074  0.01934735  0.64502551    -0.61600
O1257       O  0.04232927  0.97078338  0.64377699    -0.74100
O1258       O  0.99355795  0.01870722  0.64335758    -0.72900
Cu1259     Cu  0.01702074  0.99404337  0.68251095     1.04600
Cu1260     Cu  0.01808840  0.99490561  0.64231190     1.04300
C1261       C  0.98511732  0.02573231  0.66207033     0.93400
C1262       C  0.04977820  0.96291933  0.66259720     0.92500
C1263       C  0.04854103  0.02706247  0.66420318     0.84700
C1264       C  0.98651801  0.96196363  0.66055810     0.90900
O1265       O  0.38200648  0.97003784  0.98572049    -0.72800
O1266       O  0.37926644  0.02066138  0.03129232    -0.73800
O1267       O  0.38022459  0.97253246  0.03389813    -0.62400
O1268       O  0.38093101  0.01831976  0.98315041    -0.70800
O1269       O  0.34337932  0.01772874  0.98239075    -0.70400
O1270       O  0.34271957  0.97068304  0.03188592    -0.61600
O1271       O  0.34173352  0.01905693  0.03070673    -0.74100
O1272       O  0.34444969  0.96971400  0.98362658    -0.72900
Cu1273     Cu  0.38191102  0.99541271  0.00856640     1.04600
Cu1274     Cu  0.34176776  0.99428829  0.00713142     1.04300
C1275       C  0.36370831  0.96195431  0.97737471     0.93400
C1276       C  0.36005343  0.02786188  0.03827529     0.92500
C1277       C  0.36141922  0.96427766  0.04083272     0.84700
C1278       C  0.36217957  0.02523389  0.97467145     0.90900
O1279       O  0.99288397  0.31170066  0.02663682    -0.72800
O1280       O  0.04185373  0.31705566  0.97889871    -0.73800
O1281       O  0.04145612  0.31494273  0.02692774    -0.62400
O1282       O  0.99372712  0.31325942  0.97848564    -0.70800
O1283       O  0.99001097  0.35063813  0.98061661    -0.70400
O1284       O  0.03946555  0.35249965  0.02802878    -0.61600
O1285       O  0.03814287  0.35450246  0.97965046    -0.74100
O1286       O  0.99136908  0.34927291  0.02877245    -0.72900
Cu1287     Cu  0.01757182  0.31293543  0.00272468     1.04600
Cu1288     Cu  0.01465257  0.35303284  0.00432594     1.04300
C1289       C  0.98448400  0.32979360  0.03524359     0.93400
C1290       C  0.04751935  0.33669120  0.97158281     0.92500
C1291       C  0.04839440  0.33388721  0.03481984     0.84700
C1292       C  0.98420434  0.33159576  0.97194221     0.90900
O1293       O  0.68243188  0.01368381  0.03345538    -0.72800
O1294       O  0.68074421  0.96711585  0.98425769    -0.73800
O1295       O  0.68307353  0.01545818  0.98500866    -0.62400
O1296       O  0.67965216  0.96546181  0.03196731    -0.70800
O1297       O  0.64210952  0.96829043  0.03162969    -0.70400
O1298       O  0.64553921  0.01773975  0.98501876    -0.61600
O1299       O  0.64318003  0.96942311  0.98342359    -0.74100
O1300       O  0.64496212  0.01627414  0.03309105    -0.72900
Cu1301     Cu  0.68279094  0.99041304  0.00867906     1.04600
Cu1302     Cu  0.64264989  0.99300724  0.00823146     1.04300
C1303       C  0.66412123  0.02235689  0.04118826     0.93400
C1304       C  0.66170740  0.96064626  0.97628186     0.92500
C1305       C  0.66473858  0.02462087  0.97776076     0.84700
C1306       C  0.66021490  0.95893976  0.03902230     0.90900
O1307       O  0.99716089  0.65091822  0.03304616    -0.72800
O1308       O  0.04236544  0.65367685  0.98217655    -0.73800
O1309       O  0.04543895  0.65289012  0.03043241    -0.62400
O1310       O  0.99433229  0.65188206  0.98527370    -0.70800
O1311       O  0.99400672  0.68952483  0.98468437    -0.70400
O1312       O  0.04279751  0.69036796  0.03293784    -0.61600
O1313       O  0.04265309  0.69127647  0.98426405    -0.74100
O1314       O  0.99442017  0.68838625  0.03325575    -0.72900
Cu1315     Cu  0.01992975  0.65108152  0.00772338     1.04600
Cu1316     Cu  0.01844845  0.69124340  0.00880052     1.04300
C1317       C  0.98820712  0.66904911  0.04092888     0.93400
C1318       C  0.04973133  0.67282742  0.97522850     0.92500
C1319       C  0.05195043  0.67167687  0.03910101     0.84700
C1320       C  0.98604782  0.67051757  0.97788837     0.90900
C1321       C  0.46590181  0.44281934  0.18648259     0.00000
C1322       C  0.44924050  0.44318189  0.16944126    -0.11900
C1323       C  0.43183608  0.42706094  0.16889957     0.02200
C1324       C  0.43080899  0.40994128  0.18566486    -0.00100
C1325       C  0.44749773  0.40942726  0.20267883    -0.11800
C1326       C  0.46486297  0.42573401  0.20333027     0.02100
H1327       H  0.44989795  0.45607659  0.15630494     0.15100
H1328       H  0.44698664  0.39619642  0.21548024     0.15100
C1329       C  0.48197071  0.42383164  0.22077232     0.36700
C1330       C  0.41606721  0.42774749  0.15014299     0.36600
N1331       N  0.49572935  0.42226715  0.23470745    -0.43600
N1332       N  0.40349484  0.42825012  0.13505628    -0.43600
C1333       C  0.18252343  0.45080710  0.45020971     0.00000
C1334       C  0.19418655  0.43027750  0.45323829    -0.11900
C1335       C  0.19346025  0.41323370  0.43665747     0.02200
C1336       C  0.18117239  0.41680646  0.41633111    -0.00100
C1337       C  0.16986966  0.43760652  0.41320064    -0.11800
C1338       C  0.17031095  0.45446637  0.42995505     0.02100
H1339       H  0.20364883  0.42742601  0.46878636     0.15100
H1340       H  0.16037870  0.44063616  0.39771789     0.15100
C1341       C  0.15877783  0.47567482  0.42563376     0.36700
C1342       C  0.20604464  0.39260864  0.44075853     0.36600
N1343       N  0.14961913  0.49270459  0.42213649    -0.43600
N1344       N  0.21613004  0.37609711  0.44419251    -0.43600
C1345       C  0.42955453  0.14409906  0.42483744     0.00000
C1346       C  0.44617356  0.12715962  0.42280817    -0.11900
C1347       C  0.46346322  0.12485899  0.43894376     0.02200
C1348       C  0.46484872  0.14024002  0.45729834    -0.00100
C1349       C  0.44812650  0.15713352  0.45941376    -0.11800
C1350       C  0.43035985  0.15893207  0.44365765     0.02100
H1351       H  0.44553222  0.11543592  0.40856510     0.15100
H1352       H  0.44880600  0.16888316  0.47362015     0.15100
C1353       C  0.41361249  0.17652910  0.44689260     0.36700
C1354       C  0.47978666  0.10687496  0.43582363     0.36600
N1355       N  0.40014084  0.19056836  0.44962274    -0.43600
N1356       N  0.49263815  0.09226429  0.43318899    -0.43600
C1357       C  0.09915271  0.08577532  0.33796319     0.00000
C1358       C  0.08413691  0.08381491  0.31963904    -0.11900
C1359       C  0.06766761  0.06667433  0.31913278     0.02200
C1360       C  0.06555514  0.05149308  0.33768423    -0.00100
C1361       C  0.08050155  0.05376346  0.35611852    -0.11800
C1362       C  0.09728502  0.07049296  0.35632385     0.02100
H1363       H  0.08560216  0.09545281  0.30542961     0.15100
H1364       H  0.07921537  0.04227276  0.37045535     0.15100
C1365       C  0.11185012  0.07201243  0.37598271     0.36700
C1366       C  0.05327964  0.06531767  0.29936664     0.36600
N1367       N  0.12350282  0.07314472  0.39175628    -0.43600
N1368       N  0.04212489  0.06433438  0.28323376    -0.43600
C1369       C  0.35539301  0.08054669  0.08903253     0.00000
C1370       C  0.37377296  0.08020290  0.07392606    -0.11900
C1371       C  0.37579589  0.06322449  0.05739165     0.02200
C1372       C  0.35886922  0.04631292  0.05544390    -0.00100
C1373       C  0.34022612  0.04702264  0.07030362    -0.11800
C1374       C  0.33846944  0.06377528  0.08709709     0.02100
H1375       H  0.38687924  0.09304589  0.07533017     0.15100
H1376       H  0.32706026  0.03423982  0.06901279     0.15100
C1377       C  0.31878302  0.06377896  0.10165517     0.36700
C1378       C  0.39519114  0.06397001  0.04244527     0.36600
N1379       N  0.30295129  0.06376009  0.11325707    -0.43600
N1380       N  0.41079696  0.06463735  0.03055545    -0.43600
C1381       C  0.06693408  0.33423974  0.05190572     0.00000
C1382       C  0.06638542  0.35053497  0.06928140    -0.11900
C1383       C  0.08334794  0.35125454  0.08596018     0.02200
C1384       C  0.10158115  0.33565041  0.08524748    -0.00100
C1385       C  0.10244806  0.31971885  0.06759529    -0.11800
C1386       C  0.08528976  0.31874311  0.05112485     0.02100
H1387       H  0.05253818  0.36264150  0.06996219     0.15100
H1388       H  0.11647857  0.30782360  0.06680739     0.15100
C1389       C  0.08742600  0.30218399  0.03317885     0.36700
C1390       C  0.08206075  0.36876538  0.10306307     0.36600
N1391       N  0.08916912  0.28892236  0.01879264    -0.43600
N1392       N  0.08104270  0.38280946  0.11676005    -0.43600
C1393       C  0.84217368  0.45177883  0.45133212     0.00000
C1394       C  0.85916074  0.45310466  0.43461261    -0.11900
C1395       C  0.85985620  0.43786470  0.41629250     0.02200
C1396       C  0.84348177  0.42047961  0.41447059    -0.00100
C1397       C  0.82643848  0.41913070  0.43109309    -0.11800
C1398       C  0.82547373  0.43466760  0.44921845     0.02100
H1399       H  0.87207922  0.46611828  0.43587417     0.15100
H1400       H  0.81382603  0.40580507  0.42994400     0.15100
C1401       C  0.80770148  0.43199059  0.46584073     0.36700
C1402       C  0.87831701  0.43976146  0.40031982     0.36600
N1403       N  0.79341578  0.42978057  0.47912031    -0.43600
N1404       N  0.89315942  0.44129860  0.38756700    -0.43600
C1405       C  0.56497920  0.13736601  0.45548484     0.00000
C1406       C  0.57970353  0.15606605  0.45372339    -0.11900
C1407       C  0.59731999  0.15632145  0.43775515     0.02200
C1408       C  0.60014241  0.13781899  0.42287960    -0.00100
C1409       C  0.58523938  0.11940685  0.42422879    -0.11800
C1410       C  0.56796748  0.11884540  0.44044396     0.02100
H1411       H  0.57769399  0.17042485  0.46509123     0.15100
H1412       H  0.58739310  0.10511925  0.41277808     0.15100
C1413       C  0.55367157  0.09899374  0.44100427     0.36700
C1414       C  0.61181055  0.17600505  0.43647243     0.36600
N1415       N  0.54250783  0.08287159  0.44141806    -0.43600
N1416       N  0.62339558  0.19180142  0.43539795    -0.43600
C1417       C  0.56561872  0.43930587  0.18411226     0.00000
C1418       C  0.56395020  0.42178237  0.16803580    -0.11900
C1419       C  0.58036266  0.40463928  0.16674542     0.02200
C1420       C  0.59920210  0.40494676  0.18152246    -0.00100
C1421       C  0.60107915  0.42252394  0.19749262    -0.11800
C1422       C  0.58437771  0.43948368  0.19911067     0.02100
H1423       H  0.54972091  0.42147792  0.15633968     0.15100
H1424       H  0.61562127  0.42294583  0.20879680     0.15100
C1425       C  0.58739805  0.45728947  0.21567364     0.36700
C1426       C  0.57799432  0.38750950  0.14938440     0.36600
N1427       N  0.58980584  0.47154406  0.22897010    -0.43600
N1428       N  0.57612754  0.37379581  0.13545089    -0.43600
C1429       C  0.67135116  0.07327698  0.09326535     0.00000
C1430       C  0.65163577  0.07276739  0.07998729    -0.11900
C1431       C  0.64829491  0.05580834  0.06367946     0.02200
C1432       C  0.66552193  0.03952839  0.05962093    -0.00100
C1433       C  0.68511288  0.03994688  0.07327260    -0.11800
C1434       C  0.68793604  0.05630833  0.09024623     0.02100
H1435       H  0.63852105  0.08542948  0.08274034     0.15100
H1436       H  0.69830218  0.02731443  0.07080589     0.15100
C1437       C  0.70823895  0.05560210  0.10395134     0.36700
C1438       C  0.62693893  0.05560639  0.05170956     0.36600
N1439       N  0.72445893  0.05489934  0.11500164    -0.43600
N1440       N  0.60955871  0.05542097  0.04258106    -0.43600
C1441       C  0.96829728  0.05299988  0.34366411     0.00000
C1442       C  0.95371155  0.05397145  0.36250678    -0.11900
C1443       C  0.93754487  0.07125023  0.36463975     0.02200
C1444       C  0.93600370  0.08831964  0.34791806    -0.00100
C1445       C  0.95092514  0.08784372  0.32943729    -0.11800
C1446       C  0.96680495  0.07026577  0.32701451     0.02100
H1447       H  0.95473798  0.04099995  0.37554204     0.15100
H1448       H  0.94975414  0.10093538  0.31653219     0.15100
C1449       C  0.98144013  0.07069788  0.30742670     0.36700
C1450       C  0.92310755  0.07138976  0.38444194     0.36600
N1451       N  0.99290287  0.07125492  0.29151221    -0.43600
N1452       N  0.91157603  0.07149755  0.40033441    -0.43600
C1453       C  0.93015875  0.32771135  0.08425246     0.00000
C1454       C  0.94982017  0.34047972  0.08852813    -0.11900
C1455       C  0.96772012  0.34112022  0.07293385     0.02200
C1456       C  0.96644524  0.32844653  0.05266660    -0.00100
C1457       C  0.94707910  0.31527255  0.04848374    -0.11800
C1458       C  0.92888101  0.31500846  0.06388760     0.02100
H1459       H  0.95109456  0.35040820  0.10399007     0.15100
H1460       H  0.94593314  0.30558027  0.03284723     0.15100
C1461       C  0.90940363  0.30121514  0.05850530     0.36700
C1462       C  0.98746456  0.35454234  0.07837214     0.36600
N1463       N  0.89382092  0.29017126  0.05401305    -0.43600
N1464       N  0.00329155  0.36527543  0.08274871    -0.43600
C1465       C  0.59977026  0.84523555  0.42352984     0.00000
C1466       C  0.58565641  0.82609575  0.42332011    -0.11900
C1467       C  0.56893198  0.82303767  0.43995275     0.02200
C1468       C  0.56580152  0.83964018  0.45702836    -0.00100
C1469       C  0.57978380  0.85895189  0.45695360    -0.11800
C1470       C  0.59672620  0.86179037  0.44056242     0.02100
H1471       H  0.58785691  0.81335854  0.41021164     0.15100
H1472       H  0.57757252  0.87189324  0.46985497     0.15100
C1473       C  0.61010474  0.88229266  0.44110652     0.36700
C1474       C  0.55487807  0.80304850  0.43857988     0.36600
N1475       N  0.62080370  0.89873441  0.44155141    -0.43600
N1476       N  0.54368456  0.78697780  0.43741535    -0.43600
C1477       C  0.84445274  0.58538296  0.42370130     0.00000
C1478       C  0.82655955  0.56968009  0.42388552    -0.11900
C1479       C  0.82560623  0.55224916  0.44020399     0.02200
C1480       C  0.84302430  0.55007344  0.45663873    -0.00100
C1481       C  0.86113011  0.56558187  0.45606319    -0.11800
C1482       C  0.86193788  0.58308708  0.43992564     0.02100
H1483       H  0.81320612  0.57111138  0.41128463     0.15100
H1484       H  0.87479330  0.56404288  0.46831235     0.15100
C1485       C  0.88150403  0.59778360  0.43965997     0.36700
C1486       C  0.80707886  0.53630816  0.43904289     0.36600
N1487       N  0.89724364  0.60948359  0.43933149    -0.43600
N1488       N  0.79225785  0.52349297  0.43806809    -0.43600
C1489       C  0.60513330  0.56873307  0.17129452     0.00000
C1490       C  0.58933899  0.57152091  0.18891181    -0.11900
C1491       C  0.57179481  0.55582252  0.19230992     0.02200
C1492       C  0.56943293  0.53709103  0.17749430    -0.00100
C1493       C  0.58528390  0.53432741  0.15987444    -0.11800
C1494       C  0.60311692  0.54974767  0.15680424     0.02100
H1495       H  0.59073629  0.58606332  0.20012249     0.15100
H1496       H  0.58375372  0.52000161  0.14840073     0.15100
C1497       C  0.61841554  0.54621226  0.13799801     0.36700
C1498       C  0.55602111  0.55988294  0.21060487     0.36600
N1499       N  0.63063636  0.54330929  0.12290234    -0.43600
N1500       N  0.54342052  0.56314084  0.22530899    -0.43600
C1501       C  0.97023446  0.66714196  0.05869318     0.00000
C1502       C  0.95805861  0.64667439  0.06023315    -0.11900
C1503       C  0.94097413  0.64363615  0.07645496     0.02200
C1504       C  0.93611383  0.66101296  0.09217286    -0.00100
C1505       C  0.94825457  0.68143138  0.09090360    -0.11800
C1506       C  0.96486347  0.68482676  0.07410721     0.02100
H1507       H  0.96167840  0.63296376  0.04849801     0.15100
H1508       H  0.94438644  0.69496053  0.10277685     0.15100
C1509       C  0.97600142  0.70659605  0.07323009     0.36700
C1510       C  0.92899457  0.62228757  0.07689275     0.36600
N1511       N  0.98468795  0.72417672  0.07248348    -0.43600
N1512       N  0.91938495  0.60518350  0.07715692    -0.43600
C1513       C  0.93231663  0.91878720  0.34616512     0.00000
C1514       C  0.95059039  0.91784381  0.36143821    -0.11900
C1515       C  0.96748699  0.93457528  0.36144173     0.02200
C1516       C  0.96672927  0.95238915  0.34537699    -0.00100
C1517       C  0.94867412  0.95310040  0.32982763    -0.11800
C1518       C  0.93137818  0.93679427  0.33031782     0.02100
H1519       H  0.95142415  0.90421730  0.37380850     0.15100
H1520       H  0.94785411  0.96672022  0.31744210     0.15100
C1521       C  0.91315312  0.93879528  0.31405862     0.36700
C1522       C  0.98558761  0.93275409  0.37786092     0.36600
N1523       N  0.89853270  0.94060774  0.30106372    -0.43600
N1524       N  0.00000346  0.93130538  0.39112500    -0.43600
C1525       C  0.65312963  0.90574244  0.08868434     0.00000
C1526       C  0.66721726  0.90254931  0.06974263    -0.11900
C1527       C  0.67014943  0.91977509  0.05360285     0.02200
C1528       C  0.65840765  0.94052752  0.05598166    -0.00100
C1529       C  0.64394036  0.94356891  0.07462823    -0.11800
C1530       C  0.64140181  0.92657528  0.09105883     0.02100
H1531       H  0.67632722  0.88665568  0.06774007     0.15100
H1532       H  0.63472191  0.95942835  0.07647811     0.15100
C1533       C  0.62612593  0.93081576  0.10974220     0.36700
C1534       C  0.68476816  0.91541331  0.03445416     0.36600
N1535       N  0.61390878  0.93438061  0.12470040    -0.43600
N1536       N  0.69657128  0.91171312  0.01921055    -0.43600
C1537       C  0.18462130  0.54982873  0.45419841     0.00000
C1538       C  0.16604841  0.56483539  0.45356202    -0.11900
C1539       C  0.16480303  0.58237700  0.43752489     0.02200
C1540       C  0.18231591  0.58516796  0.42142166    -0.00100
C1541       C  0.20075012  0.57009318  0.42177840    -0.11800
C1542       C  0.20216301  0.55267301  0.43800344     0.02100
H1543       H  0.15232967  0.56288226  0.46568382     0.15100
H1544       H  0.21419595  0.57200163  0.40933464     0.15100
C1545       C  0.22145010  0.53758938  0.43703729     0.36700
C1546       C  0.14481037  0.59656489  0.43730245     0.36600
N1547       N  0.23693214  0.52552261  0.43622406    -0.43600
N1548       N  0.12877397  0.60791200  0.43707329    -0.43600
C1549       C  0.46664799  0.83457194  0.45720856     0.00000
C1550       C  0.45353415  0.85432401  0.45409596    -0.11900
C1551       C  0.43631084  0.85530944  0.43772113     0.02200
C1552       C  0.43180374  0.83631042  0.42394659    -0.00100
C1553       C  0.44504471  0.81671584  0.42654669    -0.11800
C1554       C  0.46225525  0.81559240  0.44301585     0.02100
H1555       H  0.45668450  0.86916204  0.46451534     0.15100
H1556       H  0.44180751  0.80215369  0.41573843     0.15100
C1557       C  0.47533624  0.79490529  0.44444265     0.36700
C1558       C  0.42414731  0.87637099  0.43463256     0.36600
N1559       N  0.48575249  0.77827440  0.44548978    -0.43600
N1560       N  0.41445998  0.89325321  0.43195476    -0.43600
C1561       C  0.46959460  0.54170466  0.17943478     0.00000
C1562       C  0.47100301  0.55700931  0.16121327    -0.11900
C1563       C  0.45501638  0.57437420  0.15839606     0.02200
C1564       C  0.43684830  0.57657807  0.17385682    -0.00100
C1565       C  0.43521869  0.56118022  0.19197631    -0.11800
C1566       C  0.45149671  0.54399430  0.19503999     0.02100
H1567       H  0.48472775  0.55540602  0.14903479     0.15100
H1568       H  0.42123891  0.56268599  0.20387563     0.15100
C1569       C  0.44868950  0.52846187  0.21377909     0.36700
C1570       C  0.45711711  0.58902892  0.13886329     0.36600
N1571       N  0.44639460  0.51602885  0.22881112    -0.43600
N1572       N  0.45880869  0.60073210  0.12317937    -0.43600
C1573       C  0.36135258  0.94687558  0.05906984     0.00000
C1574       C  0.34588178  0.92879475  0.05785580    -0.11900
C1575       C  0.34620719  0.91124857  0.07397852     0.02200
C1576       C  0.36221885  0.91162845  0.09181874    -0.00100
C1577       C  0.37698869  0.93021803  0.09358528    -0.11800
C1578       C  0.37669830  0.94772027  0.07748115     0.02100
H1579       H  0.33370022  0.92817190  0.04404420     0.15100
H1580       H  0.38907609  0.93094274  0.10746749     0.15100
C1581       C  0.39173503  0.96676376  0.08075358     0.36700
C1582       C  0.32934001  0.89359361  0.07236866     0.36600
N1583       N  0.40366598  0.98210327  0.08345347    -0.43600
N1584       N  0.31570215  0.87954415  0.07115664    -0.43600
C1585       C  0.09968898  0.91807747  0.34515326     0.00000
C1586       C  0.08279520  0.91674269  0.32838548    -0.11900
C1587       C  0.06591707  0.93347248  0.32653661     0.02200
C1588       C  0.06567989  0.95199189  0.34177650    -0.00100
C1589       C  0.08243784  0.95311934  0.35872242    -0.11800
C1590       C  0.09928898  0.93644194  0.36055839     0.02100
H1591       H  0.08278029  0.90255546  0.31666469     0.15100
H1592       H  0.08229600  0.96705610  0.37075222     0.15100
C1593       C  0.11506716  0.93793754  0.37926057     0.36700
C1594       C  0.04842793  0.93053752  0.30964243     0.36600
N1595       N  0.12756113  0.93913790  0.39437267    -0.43600
N1596       N  0.03434695  0.92808069  0.29617616    -0.43600
C1597       C  0.10654320  0.66907344  0.08802562     0.00000
C1598       C  0.08693161  0.68189938  0.09266207    -0.11900
C1599       C  0.06909093  0.68334343  0.07689045     0.02200
C1600       C  0.07055546  0.67159493  0.05604995    -0.00100
C1601       C  0.09003485  0.65875997  0.05142229    -0.11800
C1602       C  0.10794777  0.65746448  0.06701328     0.02100
H1603       H  0.08545488  0.69073255  0.10875963     0.15100
H1604       H  0.09122222  0.64956459  0.03550281     0.15100
C1605       C  0.12689839  0.64303550  0.06131669     0.36700
C1606       C  0.04898648  0.69591399  0.08304709     0.36600
N1607       N  0.14203079  0.63143191  0.05660046    -0.43600
N1608       N  0.03286842  0.70590181  0.08815161    -0.43600
C1609       C  0.59963665  0.83894558  0.59151835     0.00000
C1610       C  0.60213941  0.82343621  0.57354100    -0.11900
C1611       C  0.58572439  0.82175358  0.55628700     0.02200
C1612       C  0.56656502  0.83621618  0.55647316    -0.00100
C1613       C  0.56425880  0.85191392  0.57424134    -0.11800
C1614       C  0.58032062  0.85322799  0.59175237     0.02100
H1615       H  0.61687879  0.81241623  0.57308225     0.15100
H1616       H  0.54967480  0.86313766  0.57456747     0.15100
C1617       C  0.57681792  0.87001921  0.60924538     0.36700
C1618       C  0.58936615  0.80559990  0.53821775     0.36600
N1619       N  0.57384180  0.88346781  0.62325119    -0.43600
N1620       N  0.59228496  0.79264200  0.52374280    -0.43600
C1621       C  0.56577591  0.54201963  0.84770817     0.00000
C1622       C  0.58150001  0.54147262  0.86564915    -0.11900
C1623       C  0.59911745  0.55731742  0.86703868     0.02200
C1624       C  0.60115833  0.57440331  0.85037370    -0.00100
C1625       C  0.58521230  0.57534152  0.83270534    -0.11800
C1626       C  0.56776862  0.55924303  0.83108593     0.02100
H1627       H  0.58015341  0.52846326  0.87861556     0.15100
H1628       H  0.58657120  0.58854928  0.81994084     0.15100
C1629       C  0.55185436  0.56122949  0.81255524     0.36700
C1630       C  0.61430405  0.55619562  0.88625439     0.36600
N1631       N  0.53911570  0.56280633  0.79768227    -0.43600
N1632       N  0.62646163  0.55534518  0.90166379    -0.43600
C1633       C  0.85235330  0.57648120  0.59372776     0.00000
C1634       C  0.86748728  0.57752739  0.57533620    -0.11900
C1635       C  0.86578066  0.56246691  0.55695561     0.02200
C1636       C  0.84870872  0.54562790  0.55667187    -0.00100
C1637       C  0.83309516  0.54500977  0.57473618    -0.11800
C1638       C  0.83475429  0.56023832  0.59310484     0.02100
H1639       H  0.88076557  0.59023868  0.57528588     0.15100
H1640       H  0.81961534  0.53252154  0.57457964     0.15100
C1641       C  0.81742979  0.55974042  0.61039191     0.36700
C1642       C  0.88104263  0.56550852  0.53802769     0.36600
N1643       N  0.80340937  0.55954104  0.62413165    -0.43600
N1644       N  0.89310602  0.56806457  0.52275001    -0.43600
C1645       C  0.93186923  0.66759400  0.92861592     0.00000
C1646       C  0.93099400  0.65432798  0.94842446    -0.11900
C1647       C  0.94824922  0.65533222  0.96474904     0.02200
C1648       C  0.96694802  0.66992093  0.96151552    -0.00100
C1649       C  0.96741536  0.68392797  0.94225445    -0.11800
C1650       C  0.95015584  0.68286567  0.92583656     0.02100
H1651       H  0.91693115  0.64271008  0.95102659     0.15100
H1652       H  0.98154603  0.69551635  0.93983117     0.15100
C1653       C  0.95124605  0.69817902  0.90675174     0.36700
C1654       C  0.94597615  0.64179160  0.98506809     0.36600
N1655       N  0.95211037  0.71054746  0.89151631    -0.43600
N1656       N  0.94408378  0.63105668  0.00140888    -0.43600
C1657       C  0.66194759  0.90659981  0.92725292     0.00000
C1658       C  0.64684888  0.92488415  0.92469683    -0.11900
C1659       C  0.64633929  0.94263415  0.94048830     0.02200
C1660       C  0.66133628  0.94236012  0.95914032    -0.00100
C1661       C  0.67664319  0.92423032  0.96150426    -0.11800
C1662       C  0.67694836  0.90632759  0.94591544     0.02100
H1663       H  0.63543464  0.92533218  0.91025731     0.15100
H1664       H  0.68844297  0.92404801  0.97561242     0.15100
C1665       C  0.69357117  0.88854485  0.94888031     0.36700
C1666       C  0.63118274  0.96147852  0.93648178     0.36600
N1667       N  0.70693768  0.87433987  0.95126775    -0.43600
N1668       N  0.61915004  0.97666586  0.93322121    -0.43600
C1669       C  0.93571824  0.90935606  0.65481853     0.00000
C1670       C  0.95120971  0.90897673  0.67291796    -0.11900
C1671       C  0.96754411  0.92609653  0.67548335     0.02200
C1672       C  0.96911026  0.94372957  0.65924004    -0.00100
C1673       C  0.95382148  0.94381902  0.64091215    -0.11800
C1674       C  0.93707039  0.92709192  0.63875296     0.02100
H1675       H  0.95024250  0.89547475  0.68539689     0.15100
H1676       H  0.95474942  0.95722078  0.62831932     0.15100
C1677       C  0.92190372  0.92824646  0.61953515     0.36700
C1678       C  0.98263628  0.92484158  0.69475130     0.36600
N1679       N  0.90975678  0.92929652  0.60413026    -0.43600
N1680       N  0.99459380  0.92381947  0.71030634    -0.43600
C1681       C  0.43385694  0.83165088  0.59106919     0.00000
C1682       C  0.45229229  0.84661580  0.59282424    -0.11900
C1683       C  0.46921477  0.84727444  0.57615477     0.02200
C1684       C  0.46823612  0.83235169  0.55740565    -0.00100
C1685       C  0.45015351  0.81696289  0.55588117    -0.11800
C1686       C  0.43287682  0.81670308  0.57229577     0.02100
H1687       H  0.45329285  0.85820823  0.60710159     0.15100
H1688       H  0.44924384  0.80544727  0.54153359     0.15100
C1689       C  0.41464689  0.80060793  0.56964903     0.36700
C1690       C  0.48766413  0.86313175  0.57897074     0.36600
N1691       N  0.39999817  0.78775103  0.56742363    -0.43600
N1692       N  0.50241751  0.87587038  0.58118107    -0.43600
C1693       C  0.18610542  0.54414140  0.55438608     0.00000
C1694       C  0.17156581  0.54063889  0.57288975    -0.11900
C1695       C  0.17117200  0.55569629  0.59130678     0.02200
C1696       C  0.18520175  0.57516325  0.59119913    -0.00100
C1697       C  0.19974975  0.57864659  0.57261721    -0.11800
C1698       C  0.20053726  0.56324081  0.55446492     0.02100
H1699       H  0.16048379  0.52592613  0.57301333     0.15100
H1700       H  0.21059484  0.59352577  0.57227030     0.15100
C1701       C  0.21562437  0.56790096  0.53573256     0.36700
C1702       C  0.15550036  0.55109491  0.60953838     0.36600
N1703       N  0.22771863  0.57159159  0.52071428    -0.43600
N1704       N  0.14295011  0.54719448  0.62412043    -0.43600
C1705       C  0.46532827  0.54189233  0.84814804     0.00000
C1706       C  0.44864134  0.54125910  0.83107122    -0.11900
C1707       C  0.43102536  0.55728678  0.83038991     0.02200
C1708       C  0.43032805  0.57497037  0.84650703    -0.00100
C1709       C  0.44702430  0.57574467  0.86349933    -0.11800
C1710       C  0.46415337  0.55921232  0.86472394     0.02100
H1711       H  0.44921821  0.52803175  0.81830139     0.15100
H1712       H  0.44649979  0.58917504  0.87607290     0.15100
C1713       C  0.48055104  0.56081864  0.88285390     0.36700
C1714       C  0.41424193  0.55555559  0.81262091     0.36600
N1715       N  0.49358239  0.56209105  0.89749509    -0.43600
N1716       N  0.40075344  0.55408186  0.79841988    -0.43600
C1717       C  0.10041521  0.67216938  0.92223148     0.00000
C1718       C  0.07911869  0.66200446  0.91876798    -0.11900
C1719       C  0.06236183  0.66240538  0.93565894     0.02200
C1720       C  0.06653157  0.67340442  0.95651062    -0.00100
C1721       C  0.08739981  0.68430399  0.95979506    -0.11800
C1722       C  0.10435047  0.68366320  0.94302029     0.02100
H1723       H  0.07565630  0.65317618  0.90300339     0.15100
H1724       H  0.09066745  0.69290056  0.97574792     0.15100
C1725       C  0.12537011  0.69532915  0.94757378     0.36700
C1726       C  0.04077540  0.65182629  0.93100735     0.36600
N1727       N  0.14219265  0.70467313  0.95140598    -0.43600
N1728       N  0.02343168  0.64345445  0.92726442    -0.43600
C1729       C  0.09964721  0.90900616  0.66036234     0.00000
C1730       C  0.10122190  0.92601237  0.67698266    -0.11900
C1731       C  0.08503828  0.94347477  0.67835730     0.02200
C1732       C  0.06717083  0.94458759  0.66236545    -0.00100
C1733       C  0.06580445  0.92771794  0.64556395    -0.11800
C1734       C  0.08158234  0.90990482  0.64460586     0.02100
H1735       H  0.11505191  0.92548484  0.68918116     0.15100
H1736       H  0.05211643  0.92829659  0.63320878     0.15100
C1737       C  0.07923129  0.89324608  0.62678844     0.36700
C1738       C  0.08755298  0.96032120  0.69596079     0.36600
N1739       N  0.07725184  0.87990740  0.61250674    -0.43600
N1740       N  0.08958826  0.97375426  0.71014332    -0.43600
C1741       C  0.36621409  0.90995955  0.92591315     0.00000
C1742       C  0.38129274  0.90918082  0.94435716    -0.11900
C1743       C  0.38080341  0.92590041  0.96129465     0.02200
C1744       C  0.36475875  0.94370138  0.96009563    -0.00100
C1745       C  0.34929732  0.94412481  0.94195873    -0.11800
C1746       C  0.34998160  0.92757599  0.92488607     0.02100
H1747       H  0.39366093  0.89558266  0.94541697     0.15100
H1748       H  0.33677141  0.95758761  0.94097843     0.15100
C1749       C  0.33323113  0.92855625  0.90702602     0.36700
C1750       C  0.39635709  0.92389890  0.98014334     0.36600
N1751       N  0.31975808  0.92929497  0.89275056    -0.43600
N1752       N  0.40874378  0.92230577  0.99531065    -0.43600
C1753       C  0.17897420  0.41234098  0.58314764     0.00000
C1754       C  0.16661448  0.41031853  0.56284800    -0.11900
C1755       C  0.16846767  0.42667179  0.54562233     0.02200
C1756       C  0.18304411  0.44546307  0.54845040    -0.00100
C1757       C  0.19641946  0.44678147  0.56811788    -0.11800
C1758       C  0.19446016  0.43050834  0.58542375     0.02100
H1759       H  0.15503499  0.39618914  0.56063729     0.15100
H1760       H  0.20801601  0.46091080  0.57024898     0.15100
C1761       C  0.20902489  0.43248045  0.60502502     0.36700
C1762       C  0.15572839  0.42350263  0.52491133     0.36600
N1763       N  0.22077309  0.43398437  0.62069583    -0.43600
N1764       N  0.14569083  0.42098009  0.50821268    -0.43600
C1765       C  0.43149935  0.13976621  0.58755498     0.00000
C1766       C  0.43255562  0.12157853  0.57228946    -0.11900
C1767       C  0.44988002  0.12016184  0.55613342     0.02200
C1768       C  0.46638032  0.13755028  0.55476310    -0.00100
C1769       C  0.46516346  0.15582489  0.57006469    -0.11800
C1770       C  0.44805635  0.15694799  0.58649990     0.02100
H1771       H  0.41986890  0.10827105  0.57315207     0.15100
H1772       H  0.47766842  0.16929708  0.56924676     0.15100
C1773       C  0.44733544  0.17632136  0.60148826     0.36700
C1774       C  0.44979201  0.10097881  0.54087164     0.36600
N1775       N  0.44674203  0.19188717  0.61345086    -0.43600
N1776       N  0.44970512  0.08554765  0.52871897    -0.43600
C1777       C  0.43377969  0.40833311  0.84702424     0.00000
C1778       C  0.43030235  0.42795691  0.83391662    -0.11900
C1779       C  0.44642562  0.44540844  0.83347595     0.02200
C1780       C  0.46642326  0.44348432  0.84649874    -0.00100
C1781       C  0.46962280  0.42424283  0.86013390    -0.11800
C1782       C  0.45362168  0.40670028  0.86046365     0.02100
H1783       H  0.41499940  0.42960135  0.82381778     0.15100
H1784       H  0.48481016  0.42283356  0.87045907     0.15100
C1785       C  0.45763891  0.38778723  0.87552531     0.36700
C1786       C  0.44158880  0.46552305  0.82032972     0.36600
N1787       N  0.46095564  0.37269381  0.88766034    -0.43600
N1788       N  0.43759872  0.48167447  0.80988327    -0.43600
C1789       C  0.36228973  0.04214059  0.95589242     0.00000
C1790       C  0.38060891  0.05730306  0.95407058    -0.11900
C1791       C  0.38117363  0.07387035  0.93698628     0.02200
C1792       C  0.36327538  0.07536076  0.92115923    -0.00100
C1793       C  0.34533655  0.05988029  0.92246714    -0.11800
C1794       C  0.34458743  0.04346567  0.93966012     0.02100
H1795       H  0.39445043  0.05638940  0.96616896     0.15100
H1796       H  0.33167618  0.06082361  0.91015567     0.15100
C1797       C  0.32572041  0.02788041  0.93973213     0.36700
C1798       C  0.40069970  0.08855997  0.93549395     0.36600
N1799       N  0.31056947  0.01542206  0.93971871    -0.43600
N1800       N  0.41639404  0.10025481  0.93418378    -0.43600
C1801       C  0.06558596  0.04566885  0.66521345     0.00000
C1802       C  0.06457200  0.06145507  0.68313437    -0.11900
C1803       C  0.08022378  0.07934079  0.68473270     0.02200
C1804       C  0.09757165  0.08146512  0.66840558    -0.00100
C1805       C  0.09872108  0.06565032  0.65063206    -0.11800
C1806       C  0.08290508  0.04802314  0.64877199     0.02100
H1807       H  0.05140779  0.05990788  0.69590340     0.15100
H1808       H  0.11207795  0.06711419  0.63804529     0.15100
C1809       C  0.08546117  0.03217327  0.63025501     0.36700
C1810       C  0.07871956  0.09467425  0.70378336     0.36600
N1811       N  0.08758212  0.01951650  0.61538280    -0.43600
N1812       N  0.07751330  0.10687947  0.71912803    -0.43600
C1813       C  0.10027223  0.34193664  0.92087913     0.00000
C1814       C  0.08113291  0.35617007  0.91980743    -0.11900
C1815       C  0.06385293  0.35487325  0.93612712     0.02200
C1816       C  0.06531380  0.33880691  0.95388478    -0.00100
C1817       C  0.08428757  0.32443899  0.95487506    -0.11800
C1818       C  0.10174841  0.32596833  0.93877860     0.02100
H1819       H  0.07969394  0.36849579  0.90621498     0.15100
H1820       H  0.08559167  0.31206505  0.96844082     0.15100
C1821       C  0.12048431  0.31030842  0.94072352     0.36700
C1822       C  0.04442411  0.36963997  0.93370896     0.36600
N1823       N  0.13546400  0.29771563  0.94246922    -0.43600
N1824       N  0.02884751  0.38145154  0.93172868    -0.43600
C1825       C  0.59975802  0.13657268  0.58861637     0.00000
C1826       C  0.58356713  0.11914623  0.58818738    -0.11900
C1827       C  0.56694373  0.11820503  0.57120513     0.02200
C1828       C  0.56596691  0.13534430  0.55440474    -0.00100
C1829       C  0.58221665  0.15274930  0.55485022    -0.11800
C1830       C  0.59912987  0.15338982  0.57154422     0.02100
H1831       H  0.58397403  0.10603128  0.60121788     0.15100
H1832       H  0.58173426  0.16601276  0.54199158     0.15100
C1833       C  0.61499411  0.17202007  0.57126523     0.36700
C1834       C  0.55071341  0.09989451  0.57195644     0.36600
N1835       N  0.62770421  0.18696042  0.57096162    -0.43600
N1836       N  0.53777456  0.08516031  0.57257314    -0.43600
C1837       C  0.85365853  0.41212058  0.58597782     0.00000
C1838       C  0.83616738  0.42822116  0.58781363    -0.11900
C1839       C  0.83318072  0.44521666  0.57128481     0.02200
C1840       C  0.84824623  0.44667393  0.55260972    -0.00100
C1841       C  0.86590334  0.43068887  0.55101914    -0.11800
C1842       C  0.86860251  0.41348279  0.56728632     0.02100
H1843       H  0.82464263  0.42739871  0.60216004     0.15100
H1844       H  0.87771820  0.43160317  0.53691635     0.15100
C1845       C  0.88750103  0.39806192  0.56490678     0.36700
C1846       C  0.81504086  0.46139366  0.57442660     0.36600
N1847       N  0.90268908  0.38574789  0.56300734    -0.43600
N1848       N  0.80048332  0.47433537  0.57699612    -0.43600
C1849       C  0.59996793  0.40944747  0.84011349     0.00000
C1850       C  0.58600314  0.41034001  0.85934379    -0.11900
C1851       C  0.56915166  0.42702475  0.86157186     0.02200
C1852       C  0.56558971  0.44303402  0.84395528    -0.00100
C1853       C  0.57944918  0.44179317  0.82451441    -0.11800
C1854       C  0.59664292  0.42539648  0.82259420     0.02100
H1855       H  0.58854071  0.39812467  0.87290637     0.15100
H1856       H  0.57704269  0.45385600  0.81080582     0.15100
C1857       C  0.61023143  0.42487844  0.80221705     0.36700
C1858       C  0.55564882  0.42692073  0.88200662     0.36600
N1859       N  0.62105427  0.42447645  0.78583669    -0.43600
N1860       N  0.54497986  0.42676329  0.89849149    -0.43600
C1861       C  0.93110841  0.33077372  0.92141619     0.00000
C1862       C  0.94906704  0.31518556  0.92003514    -0.11900
C1863       C  0.96635333  0.31488141  0.93640913     0.02200
C1864       C  0.96611089  0.33078098  0.95441969    -0.00100
C1865       C  0.94813455  0.34636088  0.95576010    -0.11800
C1866       C  0.93064412  0.34636915  0.93965389     0.02100
H1867       H  0.94960108  0.30319861  0.90606286     0.15100
H1868       H  0.94768747  0.35857898  0.96953124     0.15100
C1869       C  0.91303898  0.36329096  0.94175078     0.36700
C1870       C  0.98455441  0.29867143  0.93374640     0.36600
N1871       N  0.89893220  0.37685580  0.94348136    -0.43600
N1872       N  0.99913629  0.28567724  0.93161426    -0.43600
C1873       C  0.93334522  0.07774902  0.66228792     0.00000
C1874       C  0.93253800  0.06010955  0.64630024    -0.11900
C1875       C  0.94926703  0.04317319  0.64577862     0.02200
C1876       C  0.96704803  0.04334333  0.66189243    -0.00100
C1877       C  0.96760709  0.06076100  0.67817892    -0.11800
C1878       C  0.95115762  0.07802318  0.67832935     0.02100
H1879       H  0.91890128  0.05973356  0.63390540     0.15100
H1880       H  0.98115839  0.06107119  0.69066622     0.15100
C1881       C  0.95254077  0.09537283  0.69557031     0.36700
C1882       C  0.94734392  0.02545302  0.62895965     0.36600
N1883       N  0.95371545  0.10921844  0.70945172    -0.43600
N1884       N  0.94574651  0.01128133  0.61545539    -0.43600
C1885       C  0.66658812  0.07726387  0.92664607     0.00000
C1886       C  0.65121888  0.07871026  0.94473776    -0.11900
C1887       C  0.65043705  0.06188717  0.96154841     0.02200
C1888       C  0.66559257  0.04325511  0.96074782    -0.00100
C1889       C  0.68153009  0.04224093  0.94306850    -0.11800
C1890       C  0.68200405  0.05887284  0.92599704     0.02100
H1891       H  0.63937022  0.09283715  0.94547896     0.15100
H1892       H  0.69338232  0.02812532  0.94231215     0.15100
C1893       C  0.69889330  0.05702211  0.90836155     0.36700
C1894       C  0.63419161  0.06449828  0.97966532     0.36600
N1895       N  0.71244085  0.05559427  0.89422337    -0.43600
N1896       N  0.62107725  0.06673527  0.99408863    -0.43600
loop_ 
_geom_bond_atom_site_label_1 
_geom_bond_atom_site_label_2 
_geom_bond_distance 
_geom_bond_site_symmetry_2 
_ccdc_geom_bond_type 
N1            N2   1.324       .  A
N1            C5   1.349       .  A
N1           Cu9   2.091       .  S
N2            C3   1.345       .  A
N2           Cu8   2.077       .  S
C3            C4   1.381       .  A
C3            H6   1.083       .  S
C4            C5   1.385       .  A
C4           C76   1.473       .  S
C5            H7   1.082       .  S
Cu8          N11   2.076       .  S
Cu9          N19   2.091       .  S
Cu10         N12   2.072       .  S
Cu10         N18   2.072       .  S
N11          N12   1.322       .  A
N11          C15   1.346       .  A
N12          C13   1.345       .  A
C13          C14   1.381       .  A
C13          H16   1.082       .  S
C14          C15   1.383       .  A
C14         C134   1.467       .  S
C15          H17   1.083       .  S
N18          N19   1.322       .  A
N18          C22   1.344       .  A
N19          C20   1.348       .  A
C20          C21   1.388       .  A
C20          H23   1.086       .  S
C21          C22   1.384       .  A
C21        C1885   1.486       .  S
C22          H24   1.084       .  S
N25          N26   1.323       .  A
N25          C29   1.346       .  A
N25         Cu33   2.085       .  S
N26          C27   1.347       .  A
N26         Cu32   2.077       .  S
C27          C28   1.383       .  A
C27          H30   1.083       .  S
C28          C29   1.384       .  A
C28         C100   1.473       .  S
C29          H31   1.082       .  S
Cu32         N35   2.077       .  S
Cu33         N43   2.085       .  S
Cu34         N36   2.084       .  S
Cu34         N42   2.085       .  S
N35          N36   1.323       .  A
N35          C39   1.346       .  A
N36          C37   1.347       .  A
C37          C38   1.384       .  A
C37          H40   1.082       .  S
C38          C39   1.382       .  A
C38         C124   1.472       .  S
C39          H41   1.082       .  S
N42          N43   1.323       .  A
N42          C46   1.347       .  A
N43          C44   1.348       .  A
C44          C45   1.386       .  A
C44          H47   1.083       .  S
C45          C46   1.386       .  A
C45        C1873   1.486       .  S
C46          H48   1.081       .  S
N49          N50   1.322       .  A
N49          C53   1.344       .  A
N49         Cu57   2.070       .  S
N50          C51   1.346       .  A
N50         Cu56   2.073       .  S
C51          C52   1.383       .  A
C51          H54   1.083       .  S
C52          C53   1.382       .  A
C52          C86   1.470       .  S
C53          H55   1.082       .  S
Cu56         N59   2.073       .  S
Cu57         N67   2.070       .  S
Cu58         N60   2.091       .  S
Cu58         N66   2.090       .  S
N59          N60   1.324       .  A
N59          C63   1.345       .  A
N60          C61   1.348       .  A
C61          C62   1.386       .  A
C61          H64   1.082       .  S
C62          C63   1.381       .  A
C62         C110   1.475       .  S
C63          H65   1.083       .  S
N66          N67   1.322       .  A
N66          C70   1.348       .  A
N67          C68   1.344       .  A
C68          C69   1.384       .  A
C68          H71   1.082       .  S
C69          C70   1.387       .  A
C69        C1861   1.484       .  S
C70          H72   1.082       .  S
N73          N74   1.322       .  A
N73          C77   1.346       .  A
N73         Cu81   2.083       .  S
N74          C75   1.348       .  A
N74         Cu80   2.076       .  S
C75          C76   1.384       .  A
C75          H78   1.083       .  S
C76          C77   1.384       .  A
C77          H79   1.082       .  S
Cu80         N83   2.076       .  S
Cu81         N91   2.083       .  S
Cu82         N84   2.083       .  S
Cu82         N90   2.083       .  S
N83          N84   1.324       .  A
N83          C87   1.344       .  A
N84          C85   1.347       .  A
C85          C86   1.384       .  A
C85          H88   1.082       .  S
C86          C87   1.381       .  A
C87          H89   1.082       .  S
N90          N91   1.323       .  A
N90          C94   1.348       .  A
N91          C92   1.346       .  A
C92          C93   1.384       .  A
C92          H95   1.081       .  S
C93          C94   1.385       .  A
C93        C1849   1.482       .  S
C94          H96   1.082       .  S
N97          N98   1.323       .  A
N97         C101   1.348       .  A
N97        Cu105   2.085       .  S
N98          C99   1.345       .  A
N98        Cu104   2.075       .  S
C99         C100   1.382       .  A
C99         H102   1.083       .  S
C100        C101   1.385       .  A
C101        H103   1.082       .  S
Cu104       N107   2.075       .  S
Cu105       N115   2.086       .  S
Cu106       N108   2.094       .  S
Cu106       N114   2.094       .  S
N107        N108   1.324       .  A
N107        C111   1.347       .  A
N108        C109   1.347       .  A
C109        C110   1.386       .  A
C109        H112   1.081       .  S
C110        C111   1.382       .  A
C111        H113   1.083       .  S
N114        N115   1.323       .  A
N114        C118   1.350       .  A
N115        C116   1.347       .  A
C116        C117   1.386       .  A
C116        H119   1.082       .  S
C117        C118   1.388       .  A
C117       C1837   1.490       .  S
C118        H120   1.084       .  S
N121        N122   1.323       .  A
N121        C125   1.346       .  A
N121       Cu129   2.078       .  S
N122        C123   1.347       .  A
N122       Cu128   2.080       .  S
C123        C124   1.383       .  A
C123        H126   1.083       .  S
C124        C125   1.383       .  A
C125        H127   1.082       .  S
Cu128       N131   2.079       .  S
Cu129       N139   2.078       .  S
Cu130       N132   2.072       .  S
Cu130       N138   2.072       .  S
N131        N132   1.323       .  A
N131        C135   1.345       .  A
N132        C133   1.346       .  A
C133        C134   1.382       .  A
C133        H136   1.082       .  S
C134        C135   1.382       .  A
C135        H137   1.083       .  S
N138        N139   1.322       .  A
N138        C142   1.345       .  A
N139        C140   1.345       .  A
C140        C141   1.385       .  A
C140        H143   1.089       .  S
C141        C142   1.385       .  A
C141       C1825   1.483       .  S
C142        H144   1.081       .  S
N145        N146   1.323       .  A
N145        C149   1.348       .  A
N145       Cu153   2.082       .  S
N146        C147   1.344       .  A
N146       Cu152   2.074       .  S
C147        C148   1.381       .  A
C147        H150   1.082       .  S
C148        C149   1.384       .  A
C148        C230   1.470       .  S
C149        H151   1.083       .  S
Cu152       N155   2.074       .  S
Cu153       N163   2.083       .  S
Cu154       N156   2.085       .  S
Cu154       N162   2.085       .  S
N155        N156   1.322       .  A
N155        C159   1.346       .  A
N156        C157   1.347       .  A
C157        C158   1.385       .  A
C157        H160   1.082       .  S
C158        C159   1.383       .  A
C158        C278   1.472       .  S
C159        H161   1.083       .  S
N162        N163   1.322       .  A
N162        C166   1.346       .  A
N163        C164   1.347       .  A
C164        C165   1.388       .  A
C164        H167   1.082       .  S
C165        C166   1.387       .  A
C165       C1813   1.492       .  S
C166        H168   1.082       .  S
N169        N170   1.322       .  A
N169        C173   1.343       .  A
N169       Cu177   2.067       .  S
N170        C171   1.347       .  A
N170       Cu176   2.081       .  S
C171        C172   1.384       .  A
C171        H174   1.083       .  S
C172        C173   1.381       .  A
C172        C244   1.468       .  S
C173        H175   1.082       .  S
Cu176       N179   2.082       .  S
Cu177       N187   2.067       .  S
Cu178       N180   2.094       .  S
Cu178       N186   2.093       .  S
N179        N180   1.325       .  A
N179        C183   1.347       .  A
N180        C181   1.347       .  A
C181        C182   1.384       .  A
C181        H184   1.082       .  S
C182        C183   1.383       .  A
C182        C268   1.474       .  S
C183        H185   1.083       .  S
N186        N187   1.322       .  A
N186        C190   1.350       .  A
N187        C188   1.343       .  A
C188        C189   1.382       .  A
C188        H191   1.081       .  S
C189        C190   1.389       .  A
C189       C1804   1.484       .  S
C190        H192   1.082       .  S
N193        N194   1.322       .  A
N193        C197   1.345       .  A
N193       Cu201   2.070       .  S
N194        C195   1.345       .  A
N194       Cu200   2.076       .  S
C195        C196   1.382       .  A
C195        H198   1.082       .  S
C196        C197   1.382       .  A
C196        C220   1.467       .  S
C197        H199   1.082       .  S
Cu200       N203   2.076       .  S
Cu201       N211   2.070       .  S
Cu202       N204   2.076       .  S
Cu202       N210   2.076       .  S
N203        N204   1.323       .  A
N203        C207   1.345       .  A
N204        C205   1.346       .  A
C205        C206   1.382       .  A
C205        H208   1.082       .  S
C206        C207   1.382       .  A
C206        C254   1.468       .  S
C207        H209   1.083       .  S
N210        N211   1.322       .  A
N210        C214   1.346       .  A
N211        C212   1.345       .  A
C212        C213   1.382       .  A
C212        H215   1.083       .  S
C213        C214   1.383       .  A
C213       C1792   1.478       .  S
C214        H216   1.082       .  S
N217        N218   1.323       .  A
N217        C221   1.345       .  A
N217       Cu225   2.072       .  S
N218        C219   1.344       .  A
N218       Cu224   2.074       .  S
C219        C220   1.381       .  A
C219        H222   1.082       .  S
C220        C221   1.382       .  A
C221        H223   1.082       .  S
Cu224       N227   2.074       .  S
Cu225       N235   2.072       .  S
Cu226       N228   2.076       .  S
Cu226       N234   2.076       .  S
N227        N228   1.323       .  A
N227        C231   1.347       .  A
N228        C229   1.344       .  A
C229        C230   1.383       .  A
C229        H232   1.082       .  S
C230        C231   1.383       .  A
C231        H233   1.082       .  S
N234        N235   1.321       .  A
N234        C238   1.346       .  A
N235        C236   1.344       .  A
C236        C237   1.386       .  A
C236        H239   1.082       .  S
C237        C238   1.386       .  A
C237       C1777   1.486       .  S
C238        H240   1.082       .  S
N241        N242   1.323       .  A
N241        C245   1.347       .  A
N241       Cu249   2.074       .  S
N242        C243   1.343       .  A
N242       Cu248   2.074       .  S
C243        C244   1.381       .  A
C243        H246   1.083       .  S
C244        C245   1.383       .  A
C245        H247   1.082       .  S
Cu248       N251   2.075       .  S
Cu249       N259   2.074       .  S
Cu250       N252   2.069       .  S
Cu250       N258   2.068       .  S
N251        N252   1.322       .  A
N251        C255   1.345       .  A
N252        C253   1.344       .  A
C253        C254   1.382       .  A
C253        H256   1.082       .  S
C254        C255   1.383       .  A
C255        H257   1.083       .  S
N258        N259   1.322       .  A
N258        C262   1.344       .  A
N259        C260   1.345       .  A
C260        C261   1.383       .  A
C260        H263   1.081       .  S
C261        C262   1.381       .  A
C261       C1765   1.474       .  S
C262        H264   1.083       .  S
N265        N266   1.323       .  A
N265        C269   1.349       .  A
N265       Cu273   2.088       .  S
N266        C267   1.345       .  A
N266       Cu272   2.074       .  S
C267        C268   1.382       .  A
C267        H270   1.083       .  S
C268        C269   1.386       .  A
C269        H271   1.082       .  S
Cu272       N275   2.074       .  S
Cu273       N283   2.088       .  S
Cu274       N276   2.090       .  S
Cu274       N282   2.090       .  S
N275        N276   1.323       .  A
N275        C279   1.345       .  A
N276        C277   1.349       .  A
C277        C278   1.386       .  A
C277        H280   1.082       .  S
C278        C279   1.381       .  A
C279        H281   1.082       .  S
N282        N283   1.324       .  A
N282        C286   1.347       .  A
N283        C284   1.348       .  A
C284        C285   1.386       .  A
C284        H287   1.082       .  S
C285        C286   1.387       .  A
C285       C1753   1.490       .  S
C286        H288   1.083       .  S
N289        N290   1.322       .  A
N289        C293   1.348       .  A
N289       Cu297   2.080       .  S
N290        C291   1.344       .  A
N290       Cu296   2.072       .  S
C291        C292   1.381       .  A
C291        H294   1.082       .  S
C292        C293   1.385       .  A
C292        C374   1.471       .  S
C293        H295   1.082       .  S
Cu296       N299   2.072       .  S
Cu297       N307   2.080       .  S
Cu298       N300   2.079       .  S
Cu298       N306   2.079       .  S
N299        N300   1.322       .  A
N299        C303   1.345       .  A
N300        C301   1.347       .  A
C301        C302   1.384       .  A
C301        H304   1.082       .  S
C302        C303   1.382       .  A
C302        C422   1.470       .  S
C303        H305   1.082       .  S
N306        N307   1.323       .  A
N306        C310   1.346       .  A
N307        C308   1.346       .  A
C308        C309   1.384       .  A
C308        H311   1.082       .  S
C309        C310   1.385       .  A
C309       C1741   1.483       .  S
C310        H312   1.083       .  S
N313        N314   1.322       .  A
N313        C317   1.347       .  A
N313       Cu321   2.082       .  S
N314        C315   1.344       .  A
N314       Cu320   2.067       .  S
C315        C316   1.380       .  A
C315        H318   1.082       .  S
C316        C317   1.385       .  A
C316        C398   1.470       .  S
C317        H319   1.083       .  S
Cu320       N323   2.067       .  S
Cu321       N331   2.083       .  S
Cu322       N324   2.087       .  S
Cu322       N330   2.088       .  S
N323        N324   1.322       .  A
N323        C327   1.345       .  A
N324        C325   1.347       .  A
C325        C326   1.386       .  A
C325        H328   1.082       .  S
C326        C327   1.381       .  A
C326        C412   1.472       .  S
C327        H329   1.082       .  S
N330        N331   1.323       .  A
N330        C334   1.348       .  A
N331        C332   1.346       .  A
C332        C333   1.386       .  A
C332        H335   1.082       .  S
C333        C334   1.386       .  A
C333       C1729   1.487       .  S
C334        H336   1.080       .  S
N337        N338   1.322       .  A
N337        C341   1.346       .  A
N337       Cu345   2.078       .  S
N338        C339   1.346       .  A
N338       Cu344   2.072       .  S
C339        C340   1.383       .  A
C339        H342   1.082       .  S
C340        C341   1.384       .  A
C340        C364   1.472       .  S
C341        H343   1.082       .  S
Cu344       N347   2.072       .  S
Cu345       N355   2.079       .  S
Cu346       N348   2.093       .  S
Cu346       N354   2.093       .  S
N347        N348   1.324       .  A
N347        C351   1.345       .  A
N348        C349   1.348       .  A
C349        C350   1.387       .  A
C349        H352   1.082       .  S
C350        C351   1.381       .  A
C350        C388   1.474       .  S
C351        H353   1.082       .  S
N354        N355   1.322       .  A
N354        C358   1.348       .  A
N355        C356   1.346       .  A
C356        C357   1.388       .  A
C356        H359   1.082       .  S
C357        C358   1.391       .  A
C357       C1717   1.496       .  S
C358        H360   1.082       .  S
N361        N362   1.324       .  A
N361        C365   1.347       .  A
N361       Cu369   2.085       .  S
N362        C363   1.345       .  A
N362       Cu368   2.075       .  S
C363        C364   1.382       .  A
C363        H366   1.082       .  S
C364        C365   1.385       .  A
C365        H367   1.082       .  S
Cu368       N371   2.075       .  S
Cu369       N379   2.085       .  S
Cu370       N372   2.078       .  S
Cu370       N378   2.078       .  S
N371        N372   1.322       .  A
N371        C375   1.347       .  A
N372        C373   1.345       .  A
C373        C374   1.383       .  A
C373        H376   1.082       .  S
C374        C375   1.383       .  A
C375        H377   1.082       .  S
N378        N379   1.322       .  A
N378        C382   1.346       .  A
N379        C380   1.348       .  A
C380        C381   1.386       .  A
C380        H383   1.082       .  S
C381        C382   1.384       .  A
C381       C1708   1.484       .  S
C382        H384   1.082       .  S
N385        N386   1.323       .  A
N385        C389   1.347       .  A
N385       Cu393   2.088       .  S
N386        C387   1.345       .  A
N386       Cu392   2.070       .  S
C387        C388   1.381       .  A
C387        H390   1.082       .  S
C388        C389   1.387       .  A
C389        H391   1.082       .  S
Cu392       N395   2.070       .  S
Cu393       N403   2.088       .  S
Cu394       N396   2.078       .  S
Cu394       N402   2.078       .  S
N395        N396   1.322       .  A
N395        C399   1.345       .  A
N396        C397   1.345       .  A
C397        C398   1.384       .  A
C397        H400   1.082       .  S
C398        C399   1.382       .  A
C399        H401   1.082       .  S
N402        N403   1.322       .  A
N402        C406   1.346       .  A
N403        C404   1.347       .  A
C404        C405   1.389       .  A
C404        H407   1.082       .  S
C405        C406   1.385       .  A
C405       C1696   1.489       .  S
C406        H408   1.081       .  S
N409        N410   1.323       .  A
N409        C413   1.346       .  A
N409       Cu417   2.084       .  S
N410        C411   1.345       .  A
N410       Cu416   2.075       .  S
C411        C412   1.382       .  A
C411        H414   1.082       .  S
C412        C413   1.384       .  A
C413        H415   1.082       .  S
Cu416       N419   2.075       .  S
Cu417       N427   2.083       .  S
Cu418       N420   2.078       .  S
Cu418       N426   2.078       .  S
N419        N420   1.322       .  A
N419        C423   1.346       .  A
N420        C421   1.345       .  A
C421        C422   1.383       .  A
C421        H424   1.082       .  S
C422        C423   1.382       .  A
C423        H425   1.083       .  S
N426        N427   1.322       .  A
N426        C430   1.345       .  A
N427        C428   1.347       .  A
C428        C429   1.388       .  A
C428        H431   1.082       .  S
C429        C430   1.386       .  A
C429       C1681   1.489       .  S
C430        H432   1.082       .  S
N433        N434   1.323       .  A
N433        C437   1.349       .  A
N433       Cu441   2.087       .  S
N434        C435   1.344       .  A
N434       Cu440   2.075       .  S
C435        C436   1.381       .  A
C435        H438   1.082       .  S
C436        C437   1.385       .  A
C436        C518   1.471       .  S
C437        H439   1.082       .  S
Cu440       N443   2.075       .  S
Cu441       N451   2.088       .  S
Cu442       N444   2.083       .  S
Cu442       N450   2.083       .  S
N443        N444   1.322       .  A
N443        C447   1.346       .  A
N444        C445   1.348       .  A
C445        C446   1.385       .  A
C445        H448   1.082       .  S
C446        C447   1.382       .  A
C446        C556   1.472       .  S
C447        H449   1.082       .  S
N450        N451   1.324       .  A
N450        C454   1.346       .  A
N451        C452   1.348       .  A
C452        C453   1.386       .  A
C452        H455   1.082       .  S
C453        C454   1.385       .  A
C453       C1669   1.485       .  S
C454        H456   1.082       .  S
N457        N458   1.323       .  A
N457        C461   1.346       .  A
N457       Cu465   2.072       .  S
N458        C459   1.344       .  A
N458       Cu464   2.077       .  S
C459        C460   1.381       .  A
C459        H462   1.082       .  S
C460        C461   1.382       .  A
C460        C542   1.467       .  S
C461        H463   1.082       .  S
Cu464       N467   2.077       .  S
Cu465       N475   2.072       .  S
Cu466       N468   2.069       .  S
Cu466       N474   2.069       .  S
N467        N468   1.321       .  A
N467        C471   1.345       .  A
N468        C469   1.346       .  A
C469        C470   1.383       .  A
C469        H472   1.082       .  S
C470        C471   1.383       .  A
C470        C566   1.470       .  S
C471        H473   1.082       .  S
N474        N475   1.322       .  A
N474        C478   1.343       .  A
N475        C476   1.346       .  A
C476        C477   1.385       .  A
C476        H479   1.083       .  S
C477        C478   1.381       .  A
C477       C1657   1.478       .  S
C478        H480   1.081       .  S
N481        N482   1.324       .  A
N481        C485   1.347       .  A
N481       Cu489   2.092       .  S
N482        C483   1.347       .  A
N482       Cu488   2.077       .  S
C483        C484   1.383       .  A
C483        H486   1.082       .  S
C484        C485   1.387       .  A
C484        C508   1.478       .  S
C485        H487   1.082       .  S
Cu488       N491   2.076       .  S
Cu489       N499   2.091       .  S
Cu490       N492   2.073       .  S
Cu490       N498   2.073       .  S
N491        N492   1.323       .  A
N491        C495   1.346       .  A
N492        C493   1.344       .  A
C493        C494   1.382       .  A
C493        H496   1.082       .  S
C494        C495   1.383       .  A
C494        C532   1.470       .  S
C495        H497   1.083       .  S
N498        N499   1.322       .  A
N498        C502   1.344       .  A
N499        C500   1.347       .  A
C500        C501   1.390       .  A
C500        H503   1.083       .  S
C501        C502   1.385       .  A
C501       C1645   1.490       .  S
C502        H504   1.091       .  S
N505        N506   1.325       .  A
N505        C509   1.351       .  A
N505       Cu513   2.110       .  S
N506        C507   1.344       .  A
N506       Cu512   2.072       .  S
C507        C508   1.380       .  A
C507        H510   1.082       .  S
C508        C509   1.390       .  A
C509        H511   1.082       .  S
Cu512       N515   2.071       .  S
Cu513       N523   2.110       .  S
Cu514       N516   2.075       .  S
Cu514       N522   2.076       .  S
N515        N516   1.321       .  A
N515        C519   1.347       .  A
N516        C517   1.345       .  A
C517        C518   1.383       .  A
C517        H520   1.082       .  S
C518        C519   1.383       .  A
C519        H521   1.082       .  S
N522        N523   1.323       .  A
N522        C526   1.345       .  A
N523        C524   1.353       .  A
C524        C525   1.393       .  A
C524        H527   1.082       .  S
C525        C526   1.384       .  A
C525       C1633   1.494       .  S
C526        H528   1.081       .  S
N529        N530   1.322       .  A
N529        C533   1.347       .  A
N529       Cu537   2.077       .  S
N530        C531   1.344       .  A
N530       Cu536   2.074       .  S
C531        C532   1.382       .  A
C531        H534   1.082       .  S
C532        C533   1.384       .  A
C533        H535   1.082       .  S
Cu536       N539   2.074       .  S
Cu537       N547   2.077       .  S
Cu538       N540   2.073       .  S
Cu538       N546   2.074       .  S
N539        N540   1.323       .  A
N539        C543   1.346       .  A
N540        C541   1.344       .  A
C541        C542   1.381       .  A
C541        H544   1.082       .  S
C542        C543   1.382       .  A
C543        H545   1.082       .  S
N546        N547   1.322       .  A
N546        C550   1.347       .  A
N547        C548   1.344       .  A
C548        C549   1.385       .  A
C548        H551   1.082       .  S
C549        C550   1.384       .  A
C549       C1624   1.482       .  S
C550        H552   1.082       .  S
N553        N554   1.324       .  A
N553        C557   1.347       .  A
N553       Cu561   2.090       .  S
N554        C555   1.347       .  A
N554       Cu560   2.082       .  S
C555        C556   1.383       .  A
C555        H558   1.083       .  S
C556        C557   1.383       .  A
C557        H559   1.082       .  S
Cu560       N563   2.081       .  S
Cu561       N571   2.090       .  S
Cu562       N564   2.079       .  S
Cu562       N570   2.079       .  S
N563        N564   1.323       .  A
N563        C567   1.347       .  A
N564        C565   1.346       .  A
C565        C566   1.382       .  A
C565        H568   1.082       .  S
C566        C567   1.383       .  A
C567        H569   1.082       .  S
N570        N571   1.322       .  A
N570        C574   1.346       .  A
N571        C572   1.349       .  A
C572        C573   1.389       .  A
C572        H575   1.082       .  S
C573        C574   1.387       .  A
C573       C1609   1.492       .  S
C574        H576   1.082       .  S
N577        N578   1.323       .  A
N577        C581   1.347       .  A
N577       Cu585   2.086       .  S
N578        C579   1.345       .  A
N578       Cu584   2.070       .  S
C579        C580   1.381       .  A
C579        H582   1.082       .  S
C580        C581   1.385       .  A
C580        C652   1.473       .  S
C581        H583   1.082       .  S
Cu584       N587   2.070       .  S
Cu585       N595   2.085       .  S
Cu586       N588   2.081       .  S
Cu586       N594   2.081       .  S
N587        N588   1.323       .  A
N587        C591   1.346       .  A
N588        C589   1.345       .  A
C589        C590   1.384       .  A
C589        H592   1.082       .  S
C590        C591   1.382       .  A
C590        C700   1.471       .  S
C591        H593   1.083       .  S
N594        N595   1.322       .  A
N594        C598   1.347       .  A
N595        C596   1.345       .  A
C596        C597   1.389       .  A
C596        H599   1.082       .  S
C597        C598   1.388       .  A
C597       C1597   1.493       .  S
C598        H600   1.082       .  S
N601        N602   1.324       .  A
N601        C605   1.348       .  A
N601       Cu609   2.084       .  S
N602        C603   1.344       .  A
N602       Cu608   2.078       .  S
C603        C604   1.381       .  A
C603        H606   1.082       .  S
C604        C605   1.385       .  A
C604        C710   1.472       .  S
C605        H607   1.083       .  S
Cu608       N611   2.078       .  S
Cu609       N619   2.084       .  S
Cu610       N612   2.076       .  S
Cu610       N618   2.076       .  S
N611        N612   1.322       .  A
N611        C615   1.347       .  A
N612        C613   1.346       .  A
C613        C614   1.383       .  A
C613        H616   1.082       .  S
C614        C615   1.384       .  A
C614        C686   1.472       .  S
C615        H617   1.082       .  S
N618        N619   1.323       .  A
N618        C622   1.345       .  A
N619        C620   1.347       .  A
C620        C621   1.386       .  A
C620        H623   1.082       .  S
C621        C622   1.385       .  A
C621       C1585   1.485       .  S
C622        H624   1.082       .  S
N625        N626   1.324       .  A
N625        C629   1.347       .  A
N625       Cu633   2.088       .  S
N626        C627   1.345       .  A
N626       Cu632   2.076       .  S
C627        C628   1.381       .  A
C627        H630   1.083       .  S
C628        C629   1.384       .  A
C628        C662   1.471       .  S
C629        H631   1.082       .  S
Cu632       N635   2.076       .  S
Cu633       N643   2.088       .  S
Cu634       N636   2.069       .  S
Cu634       N642   2.069       .  S
N635        N636   1.322       .  A
N635        C639   1.346       .  A
N636        C637   1.345       .  A
C637        C638   1.381       .  A
C637        H640   1.082       .  S
C638        C639   1.383       .  A
C638        C676   1.469       .  S
C639        H641   1.082       .  S
N642        N643   1.322       .  A
N642        C646   1.344       .  A
N643        C644   1.348       .  A
C644        C645   1.389       .  A
C644        H647   1.082       .  S
C645        C646   1.383       .  A
C645       C1576   1.486       .  S
C646        H648   1.085       .  S
N649        N650   1.324       .  A
N649        C653   1.347       .  A
N649       Cu657   2.088       .  S
N650        C651   1.345       .  A
N650       Cu656   2.074       .  S
C651        C652   1.381       .  A
C651        H654   1.082       .  S
C652        C653   1.385       .  A
C653        H655   1.082       .  S
Cu656       N659   2.073       .  S
Cu657       N667   2.088       .  S
Cu658       N660   2.076       .  S
Cu658       N666   2.076       .  S
N659        N660   1.322       .  A
N659        C663   1.345       .  A
N660        C661   1.346       .  A
C661        C662   1.384       .  A
C661        H664   1.082       .  S
C662        C663   1.383       .  A
C663        H665   1.082       .  S
N666        N667   1.323       .  A
N666        C670   1.344       .  A
N667        C668   1.349       .  A
C668        C669   1.387       .  A
C668        H671   1.081       .  S
C669        C670   1.384       .  A
C669       C1564   1.485       .  S
C670        H672   1.082       .  S
N673        N674   1.323       .  A
N673        C677   1.345       .  A
N673       Cu681   2.073       .  S
N674        C675   1.346       .  A
N674       Cu680   2.079       .  S
C675        C676   1.383       .  A
C675        H678   1.083       .  S
C676        C677   1.381       .  A
C677        H679   1.082       .  S
Cu680       N683   2.079       .  S
Cu681       N691   2.073       .  S
Cu682       N684   2.084       .  S
Cu682       N690   2.084       .  S
N683        N684   1.323       .  A
N683        C687   1.346       .  A
N684        C685   1.347       .  A
C685        C686   1.384       .  A
C685        H688   1.082       .  S
C686        C687   1.382       .  A
C687        H689   1.083       .  S
N690        N691   1.322       .  A
N690        C694   1.346       .  A
N691        C692   1.346       .  A
C692        C693   1.382       .  A
C692        H695   1.082       .  S
C693        C694   1.385       .  A
C693       C1552   1.480       .  S
C694        H696   1.083       .  S
N697        N698   1.324       .  A
N697        C701   1.348       .  A
N697       Cu705   2.086       .  S
N698        C699   1.343       .  A
N698       Cu704   2.071       .  S
C699        C700   1.380       .  A
C699        H702   1.082       .  S
C700        C701   1.385       .  A
C701        H703   1.082       .  S
Cu704       N707   2.071       .  S
Cu705       N715   2.085       .  S
Cu706       N708   2.077       .  S
Cu706       N714   2.078       .  S
N707        N708   1.321       .  A
N707        C711   1.347       .  A
N708        C709   1.344       .  A
C709        C710   1.384       .  A
C709        H712   1.082       .  S
C710        C711   1.384       .  A
C711        H713   1.082       .  S
N714        N715   1.323       .  A
N714        C718   1.345       .  A
N715        C716   1.348       .  A
C716        C717   1.386       .  A
C716        H719   1.081       .  S
C717        C718   1.385       .  A
C717       C1540   1.486       .  S
C718        H720   1.083       .  S
N721        N722   1.324       .  A
N721        C725   1.349       .  A
N721       Cu729   2.091       .  S
N722        C723   1.345       .  A
N722       Cu728   2.077       .  S
C723        C724   1.381       .  A
C723        H726   1.082       .  S
C724        C725   1.385       .  A
C724        C806   1.473       .  S
C725        H727   1.082       .  S
Cu728       N731   2.077       .  S
Cu729       N739   2.091       .  S
Cu730       N732   2.060       .  S
Cu730       N738   2.060       .  S
N731        N732   1.321       .  A
N731        C735   1.346       .  A
N732        C733   1.344       .  A
C733        C734   1.380       .  A
C733        H736   1.082       .  S
C734        C735   1.383       .  A
C734        C844   1.466       .  S
C735        H737   1.082       .  S
N738        N739   1.322       .  A
N738        C742   1.342       .  A
N739        C740   1.348       .  A
C740        C741   1.389       .  A
C740        H743   1.081       .  S
C741        C742   1.382       .  A
C741       C1525   1.484       .  S
C742        H744   1.082       .  S
N745        N746   1.323       .  A
N745        C749   1.348       .  A
N745       Cu753   2.092       .  S
N746        C747   1.347       .  A
N746       Cu752   2.078       .  S
C747        C748   1.383       .  A
C747        H750   1.082       .  S
C748        C749   1.386       .  A
C748        C830   1.476       .  S
C749        H751   1.082       .  S
Cu752       N755   2.078       .  S
Cu753       N763   2.092       .  S
Cu754       N756   2.073       .  S
Cu754       N762   2.073       .  S
N755        N756   1.323       .  A
N755        C759   1.345       .  A
N756        C757   1.346       .  A
C757        C758   1.382       .  A
C757        H760   1.082       .  S
C758        C759   1.382       .  A
C758        C854   1.468       .  S
C759        H761   1.082       .  S
N762        N763   1.322       .  A
N762        C766   1.345       .  A
N763        C764   1.348       .  A
C764        C765   1.389       .  A
C764        H767   1.081       .  S
C765        C766   1.384       .  A
C765       C1513   1.487       .  S
C766        H768   1.082       .  S
N769        N770   1.324       .  A
N769        C773   1.349       .  A
N769       Cu777   2.097       .  S
N770        C771   1.345       .  A
N770       Cu776   2.074       .  S
C771        C772   1.381       .  A
C771        H774   1.082       .  S
C772        C773   1.388       .  A
C772        C820   1.476       .  S
C773        H775   1.082       .  S
Cu776       N779   2.073       .  S
Cu777       N787   2.097       .  S
Cu778       N780   2.078       .  S
Cu778       N786   2.078       .  S
N779        N780   1.322       .  A
N779        C783   1.345       .  A
N780        C781   1.347       .  A
C781        C782   1.384       .  A
C781        H784   1.082       .  S
C782        C783   1.383       .  A
C782        C796   1.472       .  S
C783        H785   1.082       .  S
N786        N787   1.324       .  A
N786        C790   1.345       .  A
N787        C788   1.350       .  A
C788        C789   1.387       .  A
C788        H791   1.083       .  S
C789        C790   1.382       .  A
C789       C1504   1.484       .  S
C790        H792   1.083       .  S
N793        N794   1.324       .  A
N793        C797   1.346       .  A
N793       Cu801   2.081       .  S
N794        C795   1.347       .  A
N794       Cu800   2.085       .  S
C795        C796   1.383       .  A
C795        H798   1.082       .  S
C796        C797   1.383       .  A
C797        H799   1.082       .  S
Cu800       N803   2.086       .  S
Cu801       N811   2.081       .  S
Cu802       N804   2.079       .  S
Cu802       N810   2.078       .  S
N803        N804   1.323       .  A
N803        C807   1.348       .  A
N804        C805   1.345       .  A
C805        C806   1.382       .  A
C805        H808   1.082       .  S
C806        C807   1.385       .  A
C807        H809   1.082       .  S
N810        N811   1.322       .  A
N810        C814   1.346       .  A
N811        C812   1.347       .  A
C812        C813   1.387       .  A
C812        H815   1.082       .  S
C813        C814   1.385       .  A
C813       C1489   1.486       .  S
C814        H816   1.082       .  S
N817        N818   1.323       .  A
N817        C821   1.347       .  A
N817       Cu825   2.091       .  S
N818        C819   1.347       .  A
N818       Cu824   2.080       .  S
C819        C820   1.383       .  A
C819        H822   1.082       .  S
C820        C821   1.386       .  A
C821        H823   1.082       .  S
Cu824       N827   2.079       .  S
Cu825       N835   2.090       .  S
Cu826       N828   2.092       .  S
Cu826       N834   2.092       .  S
N827        N828   1.323       .  A
N827        C831   1.346       .  A
N828        C829   1.349       .  A
C829        C830   1.386       .  A
C829        H832   1.082       .  S
C830        C831   1.383       .  A
C831        H833   1.082       .  S
N834        N835   1.324       .  A
N834        C838   1.348       .  A
N835        C836   1.349       .  A
C836        C837   1.386       .  A
C836        H839   1.082       .  S
C837        C838   1.387       .  A
C837       C1477   1.489       .  S
C838        H840   1.082       .  S
N841        N842   1.324       .  A
N841        C845   1.344       .  A
N841       Cu849   2.070       .  S
N842        C843   1.345       .  A
N842       Cu848   2.080       .  S
C843        C844   1.382       .  A
C843        H846   1.083       .  S
C844        C845   1.379       .  A
C845        H847   1.082       .  S
Cu848       N851   2.079       .  S
Cu849       N859   2.070       .  S
Cu850       N852   2.070       .  S
Cu850       N858   2.069       .  S
N851        N852   1.322       .  A
N851        C855   1.347       .  A
N852        C853   1.344       .  A
C853        C854   1.381       .  A
C853        H856   1.082       .  S
C854        C855   1.384       .  A
C855        H857   1.082       .  S
N858        N859   1.321       .  A
N858        C862   1.344       .  A
N859        C860   1.345       .  A
C860        C861   1.384       .  A
C860        H863   1.083       .  S
C861        C862   1.384       .  A
C861       C1465   1.480       .  S
C862        H864   1.082       .  S
N865        N866   1.322       .  A
N865        C869   1.348       .  A
N865       Cu873   2.087       .  S
N866        C867   1.345       .  A
N866       Cu872   2.066       .  S
C867        C868   1.381       .  A
C867        H870   1.082       .  S
C868        C869   1.387       .  A
C868        C998   1.474       .  S
C869        H871   1.082       .  S
Cu872       N875   2.066       .  S
Cu873       N883   2.087       .  S
Cu874       N876   2.084       .  S
Cu874       N882   2.085       .  S
N875        N876   1.323       .  A
N875        C879   1.343       .  A
N876        C877   1.348       .  A
C877        C878   1.385       .  A
C877        H880   1.082       .  S
C878        C879   1.380       .  A
C878        C950   1.471       .  S
C879        H881   1.082       .  S
N882        N883   1.323       .  A
N882        C886   1.348       .  A
N883        C884   1.345       .  A
C884        C885   1.387       .  A
C884        H887   1.081       .  S
C885        C886   1.388       .  A
C885       C1453   1.491       .  S
C886        H888   1.083       .  S
N889        N890   1.321       .  A
N889        C893   1.342       .  A
N889       Cu897   2.057       .  S
N890        C891   1.346       .  A
N890       Cu896   2.076       .  S
C891        C892   1.384       .  A
C891        H894   1.082       .  S
C892        C893   1.380       .  A
C892        C974   1.466       .  S
C893        H895   1.082       .  S
Cu896       N899   2.077       .  S
Cu897       N907   2.057       .  S
Cu898       N900   2.088       .  S
Cu898       N906   2.087       .  S
N899        N900   1.325       .  A
N899        C903   1.346       .  A
N900        C901   1.346       .  A
C901        C902   1.384       .  A
C901        H904   1.082       .  S
C902        C903   1.381       .  A
C902        C988   1.472       .  S
C903        H905   1.083       .  S
N906        N907   1.322       .  A
N906        C910   1.349       .  A
N907        C908   1.341       .  A
C908        C909   1.379       .  A
C908        H911   1.083       .  S
C909        C910   1.387       .  A
C909       C1444   1.477       .  S
C910        H912   1.082       .  S
N913        N914   1.322       .  A
N913        C917   1.343       .  A
N913       Cu921   2.060       .  S
N914        C915   1.345       .  A
N914       Cu920   2.078       .  S
C915        C916   1.383       .  A
C915        H918   1.083       .  S
C916        C917   1.379       .  A
C916        C964   1.465       .  S
C917        H919   1.082       .  S
Cu920       N923   2.078       .  S
Cu921       N931   2.060       .  S
Cu922       N924   2.079       .  S
Cu922       N930   2.078       .  S
N923        N924   1.323       .  A
N923        C927   1.346       .  A
N924        C925   1.345       .  A
C925        C926   1.383       .  A
C925        H928   1.082       .  S
C926        C927   1.383       .  A
C926        C940   1.471       .  S
C927        H929   1.082       .  S
N930        N931   1.322       .  A
N930        C934   1.345       .  A
N931        C932   1.343       .  A
C932        C933   1.380       .  A
C932        H935   1.084       .  S
C933        C934   1.385       .  A
C933       C1429   1.476       .  S
C934        H936   1.082       .  S
N937        N938   1.323       .  A
N937        C941   1.347       .  A
N937       Cu945   2.084       .  S
N938        C939   1.344       .  A
N938       Cu944   2.072       .  S
C939        C940   1.381       .  A
C939        H942   1.083       .  S
C940        C941   1.385       .  A
C941        H943   1.082       .  S
Cu944       N947   2.072       .  S
Cu945       N955   2.084       .  S
Cu946       N948   2.079       .  S
Cu946       N954   2.079       .  S
N947        N948   1.322       .  A
N947        C951   1.346       .  A
N948        C949   1.344       .  A
C949        C950   1.383       .  A
C949        H952   1.082       .  S
C950        C951   1.382       .  A
C951        H953   1.082       .  S
N954        N955   1.323       .  A
N954        C958   1.347       .  A
N955        C956   1.346       .  A
C956        C957   1.385       .  A
C956        H959   1.082       .  S
C957        C958   1.384       .  A
C957       C1420   1.482       .  S
C958        H960   1.081       .  S
N961        N962   1.321       .  A
N961        C965   1.343       .  A
N961       Cu969   2.060       .  S
N962        C963   1.345       .  A
N962       Cu968   2.071       .  S
C963        C964   1.383       .  A
C963        H966   1.083       .  S
C964        C965   1.380       .  A
C965        H967   1.082       .  S
Cu968       N971   2.071       .  S
Cu969       N979   2.060       .  S
Cu970       N972   2.075       .  S
Cu970       N978   2.075       .  S
N971        N972   1.324       .  A
N971        C975   1.343       .  A
N972        C973   1.346       .  A
C973        C974   1.381       .  A
C973        H976   1.082       .  S
C974        C975   1.380       .  A
C975        H977   1.083       .  S
N978        N979   1.321       .  A
N978        C982   1.346       .  A
N979        C980   1.342       .  A
C980        C981   1.380       .  A
C980        H983   1.082       .  S
C981        C982   1.384       .  A
C981       C1408   1.474       .  S
C982        H984   1.082       .  S
N985        N986   1.323       .  A
N985        C989   1.348       .  A
N985       Cu993   2.088       .  S
N986        C987   1.344       .  A
N986       Cu992   2.067       .  S
C987        C988   1.380       .  A
C987        H990   1.083       .  S
C988        C989   1.386       .  A
C989        H991   1.082       .  S
Cu992       N995   2.067       .  S
Cu993      N1003   2.088       .  S
Cu994       N996   2.094       .  S
Cu994      N1002   2.095       .  S
N995        N996   1.323       .  A
N995        C999   1.345       .  A
N996        C997   1.348       .  A
C997        C998   1.387       .  A
C997       H1000   1.082       .  S
C998        C999   1.381       .  A
C999       H1001   1.082       .  S
N1002      N1003   1.323       .  A
N1002      C1006   1.349       .  A
N1003      C1004   1.348       .  A
C1004      C1005   1.386       .  A
C1004      H1007   1.082       .  S
C1005      C1006   1.389       .  A
C1005      C1396   1.492       .  S
C1006      H1008   1.082       .  S
N1009      N1010   1.321       .  A
N1009      C1013   1.342       .  A
N1009     Cu1017   2.064       .  S
N1010      C1011   1.346       .  A
N1010     Cu1016   2.068       .  S
C1011      C1012   1.383       .  A
C1011      H1014   1.082       .  S
C1012      C1013   1.382       .  A
C1012      C1118   1.467       .  S
C1013      H1015   1.082       .  S
Cu1016     N1019   2.068       .  S
Cu1017     N1027   2.064       .  S
Cu1018     N1020   2.091       .  S
Cu1018     N1026   2.090       .  S
N1019      N1020   1.324       .  A
N1019      C1023   1.342       .  A
N1020      C1021   1.348       .  A
C1021      C1022   1.386       .  A
C1021      H1024   1.082       .  S
C1022      C1023   1.379       .  A
C1022      C1142   1.471       .  S
C1023      H1025   1.082       .  S
N1026      N1027   1.322       .  A
N1026      C1030   1.348       .  A
N1027      C1028   1.343       .  A
C1028      C1029   1.382       .  A
C1028      H1031   1.082       .  S
C1029      C1030   1.387       .  A
C1029      C1384   1.483       .  S
C1030      H1032   1.082       .  S
N1033      N1034   1.323       .  A
N1033      C1037   1.347       .  A
N1033     Cu1041   2.080       .  S
N1034      C1035   1.344       .  A
N1034     Cu1040   2.069       .  S
C1035      C1036   1.381       .  A
C1035      H1038   1.083       .  S
C1036      C1037   1.385       .  A
C1036      C1084   1.470       .  S
C1037      H1039   1.082       .  S
Cu1040     N1043   2.068       .  S
Cu1041     N1051   2.079       .  S
Cu1042     N1044   2.077       .  S
Cu1042     N1050   2.077       .  S
N1043      N1044   1.322       .  A
N1043      C1047   1.345       .  A
N1044      C1045   1.345       .  A
C1045      C1046   1.385       .  A
C1045      H1048   1.082       .  S
C1046      C1047   1.381       .  A
C1046      C1132   1.470       .  S
C1047      H1049   1.083       .  S
N1050      N1051   1.323       .  A
N1050      C1054   1.345       .  A
N1051      C1052   1.346       .  A
C1052      C1053   1.384       .  A
C1052      H1055   1.083       .  S
C1053      C1054   1.384       .  A
C1053      C1369   1.481       .  S
C1054      H1056   1.081       .  S
N1057      N1058   1.320       .  A
N1057      C1061   1.342       .  A
N1057     Cu1065   2.056       .  S
N1058      C1059   1.346       .  A
N1058     Cu1064   2.070       .  S
C1059      C1060   1.384       .  A
C1059      H1062   1.083       .  S
C1060      C1061   1.380       .  A
C1060      C1094   1.465       .  S
C1061      H1063   1.082       .  S
Cu1064     N1067   2.071       .  S
Cu1065     N1075   2.056       .  S
Cu1066     N1068   2.088       .  S
Cu1066     N1074   2.087       .  S
N1067      N1068   1.324       .  A
N1067      C1071   1.343       .  A
N1068      C1069   1.348       .  A
C1069      C1070   1.385       .  A
C1069      H1072   1.082       .  S
C1070      C1071   1.379       .  A
C1070      C1108   1.470       .  S
C1071      H1073   1.082       .  S
N1074      N1075   1.322       .  A
N1074      C1078   1.348       .  A
N1075      C1076   1.341       .  A
C1076      C1077   1.379       .  A
C1076      H1079   1.083       .  S
C1077      C1078   1.387       .  A
C1077      C1357   1.479       .  S
C1078      H1080   1.082       .  S
N1081      N1082   1.322       .  A
N1081      C1085   1.346       .  A
N1081     Cu1089   2.078       .  S
N1082      C1083   1.345       .  A
N1082     Cu1088   2.070       .  S
C1083      C1084   1.382       .  A
C1083      H1086   1.083       .  S
C1084      C1085   1.384       .  A
C1085      H1087   1.082       .  S
Cu1088     N1091   2.070       .  S
Cu1089     N1099   2.078       .  S
Cu1090     N1092   2.072       .  S
Cu1090     N1098   2.073       .  S
N1091      N1092   1.323       .  A
N1091      C1095   1.343       .  A
N1092      C1093   1.346       .  A
C1093      C1094   1.381       .  A
C1093      H1096   1.082       .  S
C1094      C1095   1.380       .  A
C1095      H1097   1.083       .  S
N1098      N1099   1.322       .  A
N1098      C1102   1.346       .  A
N1099      C1100   1.344       .  A
C1100      C1101   1.385       .  A
C1100      H1103   1.082       .  S
C1101      C1102   1.385       .  A
C1101      C1345   1.484       .  S
C1102      H1104   1.087       .  S
N1105      N1106   1.322       .  A
N1105      C1109   1.344       .  A
N1105     Cu1113   2.077       .  S
N1106      C1107   1.346       .  A
N1106     Cu1112   2.067       .  S
C1107      C1108   1.382       .  A
C1107      H1110   1.083       .  S
C1108      C1109   1.384       .  A
C1109      H1111   1.082       .  S
Cu1112     N1115   2.066       .  S
Cu1113     N1123   2.077       .  S
Cu1114     N1116   2.074       .  S
Cu1114     N1122   2.074       .  S
N1115      N1116   1.322       .  A
N1115      C1119   1.342       .  A
N1116      C1117   1.347       .  A
C1117      C1118   1.384       .  A
C1117      H1120   1.082       .  S
C1118      C1119   1.380       .  A
C1119      H1121   1.082       .  S
N1122      N1123   1.322       .  A
N1122      C1126   1.344       .  A
N1123      C1124   1.346       .  A
C1124      C1125   1.387       .  A
C1124      H1127   1.082       .  S
C1125      C1126   1.385       .  A
C1125      C1336   1.486       .  S
C1126      H1128   1.082       .  S
N1129      N1130   1.323       .  A
N1129      C1133   1.348       .  A
N1129     Cu1137   2.087       .  S
N1130      C1131   1.344       .  A
N1130     Cu1136   2.070       .  S
C1131      C1132   1.380       .  A
C1131      H1134   1.083       .  S
C1132      C1133   1.385       .  A
C1133      H1135   1.082       .  S
Cu1136     N1139   2.069       .  S
Cu1137     N1147   2.087       .  S
Cu1138     N1140   2.077       .  S
Cu1138     N1146   2.077       .  S
N1139      N1140   1.321       .  A
N1139      C1143   1.346       .  A
N1140      C1141   1.345       .  A
C1141      C1142   1.385       .  A
C1141      H1144   1.082       .  S
C1142      C1143   1.382       .  A
C1143      H1145   1.082       .  S
N1146      N1147   1.323       .  A
N1146      C1150   1.344       .  A
N1147      C1148   1.349       .  A
C1148      C1149   1.386       .  A
C1148      H1151   1.082       .  S
C1149      C1150   1.384       .  A
C1149      C1324   1.486       .  S
C1150      H1152   1.082       .  S
O1153     Cu1161   2.007       .  S
O1153      C1163   1.278       .  A
O1154     Cu1161   2.005       .  S
O1154      C1164   1.278       .  A
O1155     Cu1161   2.009       .  S
O1155      C1165   1.278       .  A
O1156     Cu1161   2.010       .  S
O1156      C1166   1.278       .  A
O1157     Cu1162   2.022       .  S
O1157      C1166   1.280       .  A
O1158     Cu1162   2.023       .  S
O1158      C1165   1.279       .  A
O1159     Cu1162   2.022       .  S
O1159      C1164   1.279       .  A
O1160     Cu1162   2.026       .  S
O1160      C1163   1.280       .  A
Cu1161    Cu1162   2.368       .  S
C1163      C1561   1.487       .  S
C1164      C1417   1.486       .  S
C1165      C1321   1.487       .  S
C1166      C1492   1.488       .  S
O1167     Cu1175   2.024       .  S
O1167      C1177   1.280       .  A
O1168     Cu1175   2.024       .  S
O1168      C1178   1.279       .  A
O1169     Cu1175   2.013       .  S
O1169      C1179   1.278       .  A
O1170     Cu1175   2.012       .  S
O1170      C1180   1.278       .  A
O1171     Cu1176   2.014       .  S
O1171      C1180   1.279       .  A
O1172     Cu1176   2.008       .  S
O1172      C1179   1.277       .  A
O1173     Cu1176   2.011       .  S
O1173      C1178   1.278       .  A
O1174     Cu1176   2.013       .  S
O1174      C1177   1.279       .  A
Cu1175    Cu1176   2.369       .  S
C1177      C1537   1.494       .  S
C1178      C1756   1.484       .  S
C1179      C1333   1.476       .  S
C1180      C1693   1.482       .  S
O1181     Cu1189   2.012       .  S
O1181      C1191   1.279       .  A
O1182     Cu1189   2.008       .  S
O1182      C1192   1.278       .  A
O1183     Cu1189   2.009       .  S
O1183      C1193   1.278       .  A
O1184     Cu1189   2.014       .  S
O1184      C1194   1.279       .  A
O1185     Cu1190   2.014       .  S
O1185      C1194   1.278       .  A
O1186     Cu1190   2.013       .  S
O1186      C1193   1.278       .  A
O1187     Cu1190   2.000       .  S
O1187      C1192   1.277       .  A
O1188     Cu1190   2.000       .  S
O1188      C1191   1.277       .  A
Cu1189    Cu1190   2.369       .  S
C1191      C1405   1.485       .  S
C1192      C1768   1.483       .  S
C1193      C1828   1.485       .  S
C1194      C1348   1.485       .  S
O1195     Cu1203   2.034       .  S
O1195      C1205   1.280       .  A
O1196     Cu1203   2.034       .  S
O1196      C1206   1.281       .  A
O1197     Cu1203   2.029       .  S
O1197      C1207   1.280       .  A
O1198     Cu1203   2.035       .  S
O1198      C1208   1.281       .  A
O1199     Cu1204   2.013       .  S
O1199      C1208   1.278       .  A
O1200     Cu1204   2.020       .  S
O1200      C1207   1.279       .  A
O1201     Cu1204   2.018       .  S
O1201      C1206   1.279       .  A
O1202     Cu1204   2.018       .  S
O1202      C1205   1.279       .  A
Cu1203    Cu1204   2.366       .  S
C1205      C1636   1.494       .  S
C1206      C1393   1.496       .  S
C1207      C1840   1.495       .  S
C1208      C1480   1.495       .  S
O1209     Cu1217   2.004       .  S
O1209      C1219   1.277       .  A
O1210     Cu1217   2.001       .  S
O1210      C1220   1.276       .  A
O1211     Cu1217   2.015       .  S
O1211      C1221   1.279       .  A
O1212     Cu1217   2.020       .  S
O1212      C1222   1.280       .  A
O1213     Cu1218   2.016       .  S
O1213      C1222   1.278       .  A
O1214     Cu1218   2.024       .  S
O1214      C1221   1.279       .  A
O1215     Cu1218   2.027       .  S
O1215      C1220   1.280       .  A
O1216     Cu1218   2.018       .  S
O1216      C1219   1.279       .  A
Cu1217    Cu1218   2.369       .  S
C1219      C1468   1.486       .  S
C1220      C1684   1.483       .  S
C1221      C1612   1.488       .  S
C1222      C1549   1.496       .  S
O1223     Cu1231   2.018       .  S
O1223      C1233   1.279       .  A
O1224     Cu1231   2.009       .  S
O1224      C1234   1.278       .  A
O1225     Cu1231   2.019       .  S
O1225      C1235   1.279       .  A
O1226     Cu1231   2.014       .  S
O1226      C1236   1.278       .  A
O1227     Cu1232   2.007       .  S
O1227      C1236   1.277       .  A
O1228     Cu1232   2.007       .  S
O1228      C1235   1.278       .  A
O1229     Cu1232   2.028       .  S
O1229      C1234   1.280       .  A
O1230     Cu1232   2.020       .  S
O1230      C1233   1.279       .  A
Cu1231    Cu1232   2.370       .  S
C1233      C1852   1.494       .  S
C1234      C1705   1.489       .  S
C1235      C1621   1.487       .  S
C1236      C1780   1.478       .  S
O1237     Cu1245   2.002   1_655  S
O1237      C1247   1.277       .  A
O1238     Cu1245   1.997   1_565  S
O1238      C1248   1.276       .  A
O1239     Cu1245   2.010       .  S
O1239      C1249   1.279       .  A
O1240     Cu1245   2.016   1_665  S
O1240      C1250   1.279       .  A
O1241     Cu1246   2.014   1_665  S
O1241      C1250   1.278       .  A
O1242     Cu1246   2.011       .  S
O1242      C1249   1.277       .  A
O1243     Cu1246   2.029   1_565  S
O1243      C1248   1.281       .  A
O1244     Cu1246   2.022   1_655  S
O1244      C1247   1.280       .  A
Cu1245    Cu1246   2.369       .  S
C1247      C1441   1.486       .  S
C1248      C1588   1.486       .  S
C1249      C1360   1.487       .  S
C1250      C1516   1.486       .  S
O1251     Cu1259   2.021   1_645  S
O1251      C1261   1.279       .  A
O1252     Cu1259   2.024       .  S
O1252      C1262   1.279       .  A
O1253     Cu1259   2.016   1_545  S
O1253      C1263   1.279       .  A
O1254     Cu1259   2.023   1_655  S
O1254      C1264   1.280       .  A
O1255     Cu1260   2.010   1_655  S
O1255      C1264   1.278       .  A
O1256     Cu1260   2.019   1_545  S
O1256      C1263   1.279       .  A
O1257     Cu1260   2.016       .  S
O1257      C1262   1.279       .  A
O1258     Cu1260   2.014   1_645  S
O1258      C1261   1.278       .  A
Cu1259    Cu1260   2.369       .  S
C1261      C1876   1.486       .  S
C1262      C1732   1.489       .  S
C1263      C1801   1.490       .  S
C1264      C1672   1.489       .  S
O1265     Cu1273   2.012   1_556  S
O1265      C1275   1.278       .  A
O1266     Cu1273   2.008   1_545  S
O1266      C1276   1.277       .  A
O1267     Cu1273   2.014       .  S
O1267      C1277   1.279       .  A
O1268     Cu1273   2.017   1_546  S
O1268      C1278   1.279       .  A
O1269     Cu1274   2.010   1_546  S
O1269      C1278   1.278       .  A
O1270     Cu1274   2.016       .  S
O1270      C1277   1.278       .  A
O1271     Cu1274   2.015   1_545  S
O1271      C1276   1.279       .  A
O1272     Cu1274   2.010   1_556  S
O1272      C1275   1.278       .  A
Cu1273    Cu1274   2.370       .  S
C1275      C1744   1.482       .  S
C1276      C1372   1.487       .  S
C1277      C1573   1.485       .  S
C1278      C1789   1.489       .  S
O1279     Cu1287   2.028   1_655  S
O1279      C1289   1.280       .  A
O1280     Cu1287   2.020   1_556  S
O1280      C1290   1.280       .  A
O1281     Cu1287   2.007       .  S
O1281      C1291   1.277       .  A
O1282     Cu1287   2.003   1_656  S
O1282      C1292   1.276       .  A
O1283     Cu1288   2.020   1_656  S
O1283      C1292   1.280       .  A
O1284     Cu1288   2.022       .  S
O1284      C1291   1.280       .  A
O1285     Cu1288   2.010   1_556  S
O1285      C1290   1.277       .  A
O1286     Cu1288   2.003   1_655  S
O1286      C1289   1.277       .  A
Cu1287    Cu1288   2.371       .  S
C1289      C1456   1.481       .  S
C1290      C1816   1.485       .  S
C1291      C1381   1.486       .  S
C1292      C1864   1.485       .  S
O1293     Cu1301   2.003   1_545  S
O1293      C1303   1.278       .  A
O1294     Cu1301   1.992   1_556  S
O1294      C1304   1.276       .  A
O1295     Cu1301   2.030   1_546  S
O1295      C1305   1.281       .  A
O1296     Cu1301   2.020       .  S
O1296      C1306   1.279       .  A
O1297     Cu1302   2.006       .  S
O1297      C1306   1.277       .  A
O1298     Cu1302   2.006   1_546  S
O1298      C1305   1.277       .  A
O1299     Cu1302   2.017   1_556  S
O1299      C1304   1.279       .  A
O1300     Cu1302   2.011   1_545  S
O1300      C1303   1.278       .  A
Cu1301    Cu1302   2.372       .  S
C1303      C1432   1.487       .  S
C1304      C1660   1.477       .  S
C1305      C1888   1.488       .  S
C1306      C1528   1.479       .  S
O1307     Cu1315   2.007   1_655  S
O1307      C1317   1.279       .  A
O1308     Cu1315   2.010   1_556  S
O1308      C1318   1.277       .  A
O1309     Cu1315   2.015       .  S
O1309      C1319   1.279       .  A
O1310     Cu1315   2.007   1_656  S
O1310      C1320   1.278       .  A
O1311     Cu1316   2.026   1_656  S
O1311      C1320   1.279       .  A
O1312     Cu1316   2.021       .  S
O1312      C1319   1.278       .  A
O1313     Cu1316   2.032   1_556  S
O1313      C1318   1.280       .  A
O1314     Cu1316   2.028   1_655  S
O1314      C1317   1.280       .  A
Cu1315    Cu1316   2.369       .  S
C1317      C1501   1.494       .  S
C1318      C1720   1.483       .  S
C1319      C1600   1.483       .  S
C1320      C1648   1.483       .  S
C1321      C1322   1.404       .  A
C1321      C1326   1.415       .  A
C1322      C1323   1.400       .  A
C1322      H1327   1.085       .  S
C1323      C1324   1.413       .  A
C1323      C1330   1.444       .  S
C1324      C1325   1.404       .  A
C1325      C1326   1.406       .  A
C1325      H1328   1.085       .  S
C1326      C1329   1.444       .  S
C1329      N1331   1.157       .  T
C1330      N1332   1.157       .  T
C1333      C1334   1.402       .  A
C1333      C1338   1.410       .  A
C1334      C1335   1.402       .  A
C1334      H1339   1.085       .  S
C1335      C1336   1.415       .  A
C1335      C1342   1.443       .  S
C1336      C1337   1.406       .  A
C1337      C1338   1.401       .  A
C1337      H1340   1.084       .  S
C1338      C1341   1.444       .  S
C1341      N1343   1.157       .  T
C1342      N1344   1.157       .  T
C1345      C1346   1.403       .  A
C1345      C1350   1.413       .  A
C1346      C1347   1.400       .  A
C1346      H1351   1.088       .  S
C1347      C1348   1.413       .  A
C1347      C1354   1.442       .  S
C1348      C1349   1.406       .  A
C1349      C1350   1.403       .  A
C1349      H1352   1.087       .  S
C1350      C1353   1.444       .  S
C1353      N1355   1.157       .  T
C1354      N1356   1.157       .  T
C1357      C1358   1.401       .  A
C1357      C1362   1.412       .  A
C1358      C1359   1.403       .  A
C1358      H1363   1.086       .  S
C1359      C1360   1.418       .  A
C1359      C1366   1.443       .  S
C1360      C1361   1.405       .  A
C1361      C1362   1.398       .  A
C1361      H1364   1.085       .  S
C1362      C1365   1.444       .  S
C1365      N1367   1.157       .  T
C1366      N1368   1.157       .  T
C1369      C1370   1.403       .  A
C1369      C1374   1.410       .  A
C1370      C1371   1.401       .  A
C1370      H1375   1.086       .  S
C1371      C1372   1.416       .  A
C1371      C1378   1.444       .  S
C1372      C1373   1.406       .  A
C1373      C1374   1.401       .  A
C1373      H1376   1.085       .  S
C1374      C1377   1.444       .  S
C1377      N1379   1.157       .  T
C1378      N1380   1.157       .  T
C1381      C1382   1.404       .  A
C1381      C1386   1.416       .  A
C1382      C1383   1.402       .  A
C1382      H1387   1.084       .  S
C1383      C1384   1.414       .  A
C1383      C1390   1.444       .  S
C1384      C1385   1.402       .  A
C1385      C1386   1.403       .  A
C1385      H1388   1.085       .  S
C1386      C1389   1.444       .  S
C1389      N1391   1.157       .  T
C1390      N1392   1.157       .  T
C1393      C1394   1.407       .  A
C1393      C1398   1.416       .  A
C1394      C1395   1.405       .  A
C1394      H1399   1.084       .  S
C1395      C1396   1.413       .  A
C1395      C1402   1.444       .  S
C1396      C1397   1.406       .  A
C1397      C1398   1.408       .  A
C1397      H1400   1.085       .  S
C1398      C1401   1.443       .  S
C1401      N1403   1.157       .  T
C1402      N1404   1.157       .  T
C1405      C1406   1.408       .  A
C1405      C1410   1.417       .  A
C1406      C1407   1.402       .  A
C1406      H1411   1.086       .  S
C1407      C1408   1.409       .  A
C1407      C1414   1.444       .  S
C1408      C1409   1.400       .  A
C1409      C1410   1.397       .  A
C1409      H1412   1.086       .  S
C1410      C1413   1.443       .  S
C1413      N1415   1.157       .  T
C1414      N1416   1.157       .  T
C1417      C1418   1.405       .  A
C1417      C1422   1.415       .  A
C1418      C1419   1.400       .  A
C1418      H1423   1.086       .  S
C1419      C1420   1.411       .  A
C1419      C1426   1.444       .  S
C1420      C1421   1.404       .  A
C1421      C1422   1.405       .  A
C1421      H1424   1.086       .  S
C1422      C1425   1.444       .  S
C1425      N1427   1.157       .  T
C1426      N1428   1.157       .  T
C1429      C1430   1.401       .  A
C1429      C1434   1.409       .  A
C1430      C1431   1.400       .  A
C1430      H1435   1.086       .  S
C1431      C1432   1.417       .  A
C1431      C1438   1.443       .  S
C1432      C1433   1.407       .  A
C1433      C1434   1.399       .  A
C1433      H1436   1.086       .  S
C1434      C1437   1.444       .  S
C1437      N1439   1.157       .  T
C1438      N1440   1.157       .  T
C1441      C1442   1.406       .  A
C1441      C1446   1.416       .  A
C1442      C1443   1.399       .  A
C1442      H1447   1.085       .  S
C1443      C1444   1.411       .  A
C1443      C1450   1.444       .  S
C1444      C1445   1.400       .  A
C1445      C1446   1.403       .  A
C1445      H1448   1.085       .  S
C1446      C1449   1.441       .  S
C1449      N1451   1.156       .  T
C1450      N1452   1.157       .  T
C1453      C1454   1.406       .  A
C1453      C1458   1.416       .  A
C1454      C1455   1.400       .  A
C1454      H1459   1.085       .  S
C1455      C1456   1.410       .  A
C1455      C1462   1.444       .  S
C1456      C1457   1.404       .  A
C1457      C1458   1.406       .  A
C1457      H1460   1.086       .  S
C1458      C1461   1.443       .  S
C1461      N1463   1.157       .  T
C1462      N1464   1.157   1_655  T
C1465      C1466   1.403       .  A
C1465      C1470   1.411       .  A
C1466      C1467   1.402       .  A
C1466      H1471   1.085       .  S
C1467      C1468   1.415       .  A
C1467      C1474   1.444       .  S
C1468      C1469   1.406       .  A
C1469      C1470   1.400       .  A
C1469      H1472   1.084       .  S
C1470      C1473   1.444       .  S
C1473      N1475   1.157       .  T
C1474      N1476   1.157       .  T
C1477      C1478   1.405       .  A
C1477      C1482   1.412       .  A
C1478      C1479   1.408       .  A
C1478      H1483   1.085       .  S
C1479      C1480   1.417       .  A
C1479      C1486   1.444       .  S
C1480      C1481   1.407       .  A
C1481      C1482   1.404       .  A
C1481      H1484   1.085       .  S
C1482      C1485   1.444       .  S
C1485      N1487   1.157       .  T
C1486      N1488   1.157       .  T
C1489      C1490   1.404       .  A
C1489      C1494   1.412       .  A
C1490      C1491   1.403       .  A
C1490      H1495   1.085       .  S
C1491      C1492   1.414       .  A
C1491      C1498   1.444       .  S
C1492      C1493   1.406       .  A
C1493      C1494   1.403       .  A
C1493      H1496   1.085       .  S
C1494      C1497   1.444       .  S
C1497      N1499   1.157       .  T
C1498      N1500   1.157       .  T
C1501      C1502   1.408       .  A
C1501      C1506   1.418       .  A
C1502      C1503   1.401       .  A
C1502      H1507   1.084       .  S
C1503      C1504   1.410       .  A
C1503      C1510   1.444       .  S
C1504      C1505   1.403       .  A
C1505      C1506   1.407       .  A
C1505      H1508   1.085       .  S
C1506      C1509   1.443       .  S
C1509      N1511   1.157       .  T
C1510      N1512   1.157       .  T
C1513      C1514   1.404       .  A
C1513      C1518   1.414       .  A
C1514      C1515   1.403       .  A
C1514      H1519   1.085       .  S
C1515      C1516   1.414       .  A
C1515      C1522   1.444       .  S
C1516      C1517   1.405       .  A
C1517      C1518   1.403       .  A
C1517      H1520   1.086       .  S
C1518      C1521   1.444       .  S
C1521      N1523   1.157       .  T
C1522      N1524   1.157   1_655  T
C1525      C1526   1.404       .  A
C1525      C1530   1.415       .  A
C1526      C1527   1.402       .  A
C1526      H1531   1.085       .  S
C1527      C1528   1.411       .  A
C1527      C1534   1.443       .  S
C1528      C1529   1.402       .  A
C1529      C1530   1.401       .  A
C1529      H1532   1.086       .  S
C1530      C1533   1.444       .  S
C1533      N1535   1.157       .  T
C1534      N1536   1.157       .  T
C1537      C1538   1.407       .  A
C1537      C1542   1.418       .  A
C1538      C1539   1.402       .  A
C1538      H1543   1.086       .  S
C1539      C1540   1.412       .  A
C1539      C1546   1.444       .  S
C1540      C1541   1.403       .  A
C1541      C1542   1.405       .  A
C1541      H1544   1.086       .  S
C1542      C1545   1.444       .  S
C1545      N1547   1.157       .  T
C1546      N1548   1.157       .  T
C1549      C1550   1.408       .  A
C1549      C1554   1.421       .  A
C1550      C1551   1.401       .  A
C1550      H1555   1.085       .  S
C1551      C1552   1.408       .  A
C1551      C1558   1.444       .  S
C1552      C1553   1.401       .  A
C1553      C1554   1.405       .  A
C1553      H1556   1.086       .  S
C1554      C1557   1.444       .  S
C1557      N1559   1.157       .  T
C1558      N1560   1.157       .  T
C1561      C1562   1.404       .  A
C1561      C1566   1.415       .  A
C1562      C1563   1.400       .  A
C1562      H1567   1.086       .  S
C1563      C1564   1.412       .  A
C1563      C1570   1.444       .  S
C1564      C1565   1.404       .  A
C1565      C1566   1.406       .  A
C1565      H1568   1.086       .  S
C1566      C1569   1.444       .  S
C1569      N1571   1.157       .  T
C1570      N1572   1.157       .  T
C1573      C1574   1.406       .  A
C1573      C1578   1.413       .  A
C1574      C1575   1.404       .  A
C1574      H1579   1.086       .  S
C1575      C1576   1.413       .  A
C1575      C1582   1.444       .  S
C1576      C1577   1.404       .  A
C1577      C1578   1.401       .  A
C1577      H1580   1.085       .  S
C1578      C1581   1.444       .  S
C1581      N1583   1.157       .  T
C1582      N1584   1.157       .  T
C1585      C1586   1.405       .  A
C1585      C1590   1.413       .  A
C1586      C1587   1.404       .  A
C1586      H1591   1.084       .  S
C1587      C1588   1.413       .  A
C1587      C1594   1.443       .  S
C1588      C1589   1.406       .  A
C1589      C1590   1.401       .  A
C1589      H1592   1.085       .  S
C1590      C1593   1.444       .  S
C1593      N1595   1.157       .  T
C1594      N1596   1.157       .  T
C1597      C1598   1.407       .  A
C1597      C1602   1.417       .  A
C1598      C1599   1.406       .  A
C1598      H1603   1.085       .  S
C1599      C1600   1.412       .  A
C1599      C1606   1.443       .  S
C1600      C1601   1.401       .  A
C1601      C1602   1.401       .  A
C1601      H1604   1.085       .  S
C1602      C1605   1.443       .  S
C1605      N1607   1.157       .  T
C1606      N1608   1.157       .  T
C1609      C1610   1.407       .  A
C1609      C1614   1.415       .  A
C1610      C1611   1.407       .  A
C1610      H1615   1.084       .  S
C1611      C1612   1.414       .  A
C1611      C1618   1.444       .  S
C1612      C1613   1.403       .  A
C1613      C1614   1.402       .  A
C1613      H1616   1.084       .  S
C1614      C1617   1.443       .  S
C1617      N1619   1.157       .  T
C1618      N1620   1.157       .  T
C1621      C1622   1.406       .  A
C1621      C1626   1.415       .  A
C1622      C1623   1.400       .  A
C1622      H1627   1.085       .  S
C1623      C1624   1.411       .  A
C1623      C1630   1.444       .  S
C1624      C1625   1.403       .  A
C1625      C1626   1.404       .  A
C1625      H1628   1.085       .  S
C1626      C1629   1.444       .  S
C1629      N1631   1.157       .  T
C1630      N1632   1.157       .  T
C1633      C1634   1.405       .  A
C1633      C1638   1.413       .  A
C1634      C1635   1.404       .  A
C1634      H1639   1.084       .  S
C1635      C1636   1.415       .  A
C1635      C1642   1.445       .  S
C1636      C1637   1.408       .  A
C1637      C1638   1.409       .  A
C1637      H1640   1.084       .  S
C1638      C1641   1.443       .  S
C1641      N1643   1.157       .  T
C1642      N1644   1.157       .  T
C1645      C1646   1.405       .  A
C1645      C1650   1.415       .  A
C1646      C1647   1.401       .  A
C1646      H1651   1.087       .  S
C1647      C1648   1.412       .  A
C1647      C1654   1.445       .  S
C1648      C1649   1.403       .  A
C1649      C1650   1.405       .  A
C1649      H1652   1.088       .  S
C1650      C1653   1.443       .  S
C1653      N1655   1.157       .  T
C1654      N1656   1.157   1_556  T
C1657      C1658   1.405       .  A
C1657      C1662   1.411       .  A
C1658      C1659   1.400       .  A
C1658      H1663   1.085       .  S
C1659      C1660   1.410       .  A
C1659      C1666   1.444       .  S
C1660      C1661   1.404       .  A
C1661      C1662   1.399       .  A
C1661      H1664   1.084       .  S
C1662      C1665   1.444       .  S
C1665      N1667   1.157       .  T
C1666      N1668   1.157       .  T
C1669      C1670   1.404       .  A
C1669      C1674   1.412       .  A
C1670      C1671   1.404       .  A
C1670      H1675   1.085       .  S
C1671      C1672   1.416       .  A
C1671      C1678   1.444       .  S
C1672      C1673   1.406       .  A
C1673      C1674   1.402       .  A
C1673      H1676   1.085       .  S
C1674      C1677   1.444       .  S
C1677      N1679   1.157       .  T
C1678      N1680   1.157       .  T
C1681      C1682   1.405       .  A
C1681      C1686   1.415       .  A
C1682      C1683   1.401       .  A
C1682      H1687   1.085       .  S
C1683      C1684   1.413       .  A
C1683      C1690   1.445       .  S
C1684      C1685   1.404       .  A
C1685      C1686   1.405       .  A
C1685      H1688   1.085       .  S
C1686      C1689   1.443       .  S
C1689      N1691   1.157       .  T
C1690      N1692   1.157       .  T
C1693      C1694   1.403       .  A
C1693      C1698   1.412       .  A
C1694      C1695   1.402       .  A
C1694      H1699   1.087       .  S
C1695      C1696   1.416       .  A
C1695      C1702   1.443       .  S
C1696      C1697   1.406       .  A
C1697      C1698   1.403       .  A
C1697      H1700   1.086       .  S
C1698      C1701   1.444       .  S
C1701      N1703   1.157       .  T
C1702      N1704   1.157       .  T
C1705      C1706   1.407       .  A
C1705      C1710   1.414       .  A
C1706      C1707   1.403       .  A
C1706      H1711   1.084       .  S
C1707      C1708   1.410       .  A
C1707      C1714   1.444       .  S
C1708      C1709   1.404       .  A
C1709      C1710   1.404       .  A
C1709      H1712   1.084       .  S
C1710      C1713   1.443       .  S
C1713      N1715   1.157       .  T
C1714      N1716   1.157       .  T
C1717      C1718   1.407       .  A
C1717      C1722   1.419       .  A
C1718      C1719   1.403       .  A
C1718      H1723   1.084       .  S
C1719      C1720   1.410       .  A
C1719      C1726   1.444       .  S
C1720      C1721   1.402       .  A
C1721      C1722   1.406       .  A
C1721      H1724   1.085       .  S
C1722      C1725   1.443       .  S
C1725      N1727   1.157       .  T
C1726      N1728   1.157       .  T
C1729      C1730   1.404       .  A
C1729      C1734   1.413       .  A
C1730      C1731   1.405       .  A
C1730      H1735   1.087       .  S
C1731      C1732   1.414       .  A
C1731      C1738   1.443       .  S
C1732      C1733   1.405       .  A
C1733      C1734   1.403       .  A
C1733      H1736   1.087       .  S
C1734      C1737   1.444       .  S
C1737      N1739   1.157       .  T
C1738      N1740   1.157       .  T
C1741      C1742   1.404       .  A
C1741      C1746   1.412       .  A
C1742      C1743   1.403       .  A
C1742      H1747   1.084       .  S
C1743      C1744   1.413       .  A
C1743      C1750   1.444       .  S
C1744      C1745   1.404       .  A
C1745      C1746   1.401       .  A
C1745      H1748   1.085       .  S
C1746      C1749   1.444       .  S
C1749      N1751   1.157       .  T
C1750      N1752   1.157       .  T
C1753      C1754   1.405       .  A
C1753      C1758   1.415       .  A
C1754      C1755   1.404       .  A
C1754      H1759   1.085       .  S
C1755      C1756   1.413       .  A
C1755      C1762   1.445       .  S
C1756      C1757   1.403       .  A
C1757      C1758   1.404       .  A
C1757      H1760   1.086       .  S
C1758      C1761   1.443       .  S
C1761      N1763   1.157       .  T
C1762      N1764   1.157       .  T
C1765      C1766   1.400       .  A
C1765      C1770   1.409       .  A
C1766      C1767   1.399       .  A
C1766      H1771   1.086       .  S
C1767      C1768   1.417       .  A
C1767      C1774   1.444       .  S
C1768      C1769   1.406       .  A
C1769      C1770   1.400       .  A
C1769      H1772   1.086       .  S
C1770      C1773   1.444       .  S
C1773      N1775   1.157       .  T
C1774      N1776   1.157       .  T
C1777      C1778   1.405       .  A
C1777      C1782   1.415       .  A
C1778      C1779   1.402       .  A
C1778      H1783   1.085       .  S
C1779      C1780   1.411       .  A
C1779      C1786   1.444       .  S
C1780      C1781   1.402       .  A
C1781      C1782   1.401       .  A
C1781      H1784   1.085       .  S
C1782      C1785   1.444       .  S
C1785      N1787   1.157       .  T
C1786      N1788   1.157       .  T
C1789      C1790   1.407       .  A
C1789      C1794   1.417       .  A
C1790      C1791   1.403       .  A
C1790      H1795   1.084       .  S
C1791      C1792   1.410       .  A
C1791      C1798   1.444       .  S
C1792      C1793   1.400       .  A
C1793      C1794   1.401       .  A
C1793      H1796   1.085       .  S
C1794      C1797   1.444       .  S
C1797      N1799   1.157       .  T
C1798      N1800   1.157       .  T
C1801      C1802   1.408       .  A
C1801      C1806   1.415       .  A
C1802      C1803   1.405       .  A
C1802      H1807   1.085       .  S
C1803      C1804   1.410       .  A
C1803      C1810   1.443       .  S
C1804      C1805   1.403       .  A
C1805      C1806   1.401       .  A
C1805      H1808   1.085       .  S
C1806      C1809   1.444       .  S
C1809      N1811   1.157       .  T
C1810      N1812   1.157       .  T
C1813      C1814   1.406       .  A
C1813      C1818   1.416       .  A
C1814      C1815   1.403       .  A
C1814      H1819   1.084       .  S
C1815      C1816   1.413       .  A
C1815      C1822   1.445       .  S
C1816      C1817   1.403       .  A
C1817      C1818   1.403       .  A
C1817      H1820   1.084       .  S
C1818      C1821   1.443       .  S
C1821      N1823   1.157       .  T
C1822      N1824   1.157       .  T
C1825      C1826   1.404       .  A
C1825      C1830   1.412       .  A
C1826      C1827   1.401       .  A
C1826      H1831   1.089       .  S
C1827      C1828   1.415       .  A
C1827      C1834   1.444       .  S
C1828      C1829   1.405       .  A
C1829      C1830   1.401       .  A
C1829      H1832   1.089       .  S
C1830      C1833   1.444       .  S
C1833      N1835   1.157       .  T
C1834      N1836   1.157       .  T
C1837      C1838   1.405       .  A
C1837      C1842   1.413       .  A
C1838      C1839   1.408       .  A
C1838      H1843   1.086       .  S
C1839      C1840   1.417       .  A
C1839      C1846   1.444       .  S
C1840      C1841   1.406       .  A
C1841      C1842   1.404       .  A
C1841      H1844   1.086       .  S
C1842      C1845   1.444       .  S
C1845      N1847   1.157       .  T
C1846      N1848   1.157       .  T
C1849      C1850   1.402       .  A
C1849      C1854   1.409       .  A
C1850      C1851   1.403       .  A
C1850      H1855   1.085       .  S
C1851      C1852   1.418       .  A
C1851      C1858   1.444       .  S
C1852      C1853   1.409       .  A
C1853      C1854   1.404       .  A
C1853      H1856   1.085       .  S
C1854      C1857   1.444       .  S
C1857      N1859   1.157       .  T
C1858      N1860   1.157       .  T
C1861      C1862   1.403       .  A
C1861      C1866   1.414       .  A
C1862      C1863   1.403       .  A
C1862      H1867   1.085       .  S
C1863      C1864   1.416       .  A
C1863      C1870   1.444       .  S
C1864      C1865   1.404       .  A
C1865      C1866   1.401       .  A
C1865      H1868   1.085       .  S
C1866      C1869   1.444       .  S
C1869      N1871   1.157       .  T
C1870      N1872   1.157       .  T
C1873      C1874   1.404       .  A
C1873      C1878   1.413       .  A
C1874      C1875   1.403       .  A
C1874      H1879   1.086       .  S
C1875      C1876   1.414       .  A
C1875      C1882   1.444       .  S
C1876      C1877   1.405       .  A
C1877      C1878   1.405       .  A
C1877      H1880   1.086       .  S
C1878      C1881   1.444       .  S
C1881      N1883   1.157       .  T
C1882      N1884   1.157       .  T
C1885      C1886   1.402       .  A
C1885      C1890   1.414       .  A
C1886      C1887   1.402       .  A
C1886      H1891   1.087       .  S
C1887      C1888   1.415       .  A
C1887      C1894   1.442       .  S
C1888      C1889   1.404       .  A
C1889      C1890   1.405       .  A
C1889      H1892   1.087       .  S
C1890      C1893   1.443       .  S
C1893      N1895   1.157       .  T
C1894      N1896   1.157       .  T
