geometry optimzed in LAMMPS
_audit_creation_date              2020-11-30 
_audit_creation_method            'lammps2cif' 
_symmetry_space_group_name_H-M    'P1' 
_symmetry_Int_Tables_number       1 
_symmetry_cell_setting            triclinic 
loop_ 
_symmetry_equiv_pos_as_xyz 
  x,y,z 
_cell_length_a                    48.41771032 
_cell_length_b                    47.77780626713833 
_cell_length_c                    28.14369576375522 
_cell_angle_alpha                 87.73023382947862 
_cell_angle_beta                  91.22226772486223 
_cell_angle_gamma                 117.74137129603011 
loop_ 
_atom_site_label 
_atom_site_type_symbol 
_atom_site_fract_x 
_atom_site_fract_y 
_atom_site_fract_z 
_atom_site_charge 
C1          C  0.41802948  0.24291399  0.11385226     0.80100
N2          N  0.41704924  0.22945370  0.15768916    -0.78200
C3          C  0.40681015  0.19786038  0.16301433     0.82600
N4          N  0.39872938  0.18007624  0.12408224    -0.78100
C5          C  0.40101155  0.19307287  0.07983350     0.82700
N6          N  0.41074064  0.22471458  0.07487838    -0.79800
C7          C  0.27469029  0.86442075  0.38800090     0.80100
N8          N  0.25770316  0.85553812  0.42872573    -0.78200
C9          C  0.22650970  0.83674852  0.42715250     0.82600
N10         N  0.21262956  0.82604003  0.38496027    -0.78100
C11         C  0.22920987  0.83321699  0.34426820     0.82700
N12         N  0.26050550  0.85236270  0.34587160    -0.79800
C13         C  0.83641988  0.22125847  0.14152191     0.80100
N14         N  0.84893883  0.23451175  0.09820612    -0.78200
C15         C  0.87983703  0.25519000  0.09469629     0.82600
N16         N  0.89742448  0.26303532  0.13451107    -0.78100
C17         C  0.88530360  0.25153673  0.17790624     0.82700
N18         N  0.85457198  0.23058632  0.18136620    -0.79800
C19         C  0.68950853  0.83929852  0.39423242     0.80100
N20         N  0.69368324  0.85461302  0.35105532    -0.78200
C21         C  0.70322187  0.88622624  0.34832220     0.82600
N22         N  0.70708310  0.90193072  0.38875988    -0.78100
C23         C  0.70154216  0.88693517  0.43193780     0.82700
N24         N  0.69273258  0.85544689  0.43453545    -0.79800
C25         C  0.87706153  0.67055053  0.11423897     0.80100
N26         N  0.86631324  0.68089485  0.07578368    -0.78200
C27         C  0.84343550  0.68944790  0.08113660     0.82600
N28         N  0.83159207  0.68747607  0.12487683    -0.78100
C29         C  0.84135862  0.67642702  0.16302410     0.82700
N30         N  0.86356633  0.66706463  0.15750392    -0.79800
C31         C  0.22305746  0.42747596  0.34494171     0.80100
N32         N  0.24119019  0.43334730  0.38486560    -0.78200
C33         C  0.26427285  0.42480094  0.38743573     0.82600
N34         N  0.26910223  0.41103831  0.34997867    -0.78100
C35         C  0.25278078  0.40650103  0.30924394     0.82700
N36         N  0.22966276  0.41508346  0.30639444    -0.79800
O37         O  0.01295000  0.50940420  0.48570378    -0.78600
C38         C  0.93270616  0.46881107  0.37349525     0.82500
O39         O  0.01026258  0.42303835  0.46597707    -0.79700
O40         O  0.98259037  0.42768720  0.29625962    -0.81200
O41         O  0.05776375  0.54109475  0.31801701    -0.81000
O42         O  0.05834736  0.53952633  0.44866464    -0.79600
Zn43       Zn  0.98666351  0.47547083  0.43772488     1.55700
O44         O  0.01671268  0.50762434  0.27541120    -0.81000
Cd45       Cd  0.05398061  0.51640558  0.38403979     1.59700
Cd46       Cd  0.02150620  0.44118230  0.39863779     1.59600
O47         O  0.09093614  0.50511061  0.38294339    -0.81000
O48         O  0.01293160  0.47728281  0.38560927    -1.91500
Cd49       Cd  0.99022413  0.47054301  0.32385967     1.59900
O50         O  0.06646991  0.45241613  0.38536184    -0.81000
O51         O  0.94553365  0.46536479  0.33642653    -0.79600
C52         C  0.98300196  0.41506532  0.48086918     0.82900
C53         C  0.04067693  0.53255821  0.48534232     0.82600
O54         O  0.94741330  0.47690219  0.41302149    -0.78600
C55         C  0.04237993  0.53327764  0.27873190     0.83400
O56         O  0.96948686  0.43187106  0.47040495    -0.78700
C57         C  0.09118288  0.47857180  0.38146155     0.83500
C58         C  0.98345261  0.40359675  0.31597817     0.83900
O59         O  0.99499879  0.40418124  0.35696611    -0.81100
O60         O  0.15029466  0.62080645  0.08981576    -0.78600
C61         C  0.05441757  0.55768546  0.02882928     0.82500
O62         O  0.09687268  0.68213176  0.08550219    -0.79700
O63         O  0.00466831  0.58380791  0.13064143    -0.81200
O64         O  0.08178481  0.57856089  0.23763914    -0.81000
O65         O  0.14942810  0.60977947  0.16771078    -0.79600
Zn66       Zn  0.10748122  0.61769793  0.07271855     1.55700
O67         O  0.03843887  0.54757434  0.19704484    -0.81000
Cd68       Cd  0.10982714  0.61327857  0.18706896     1.59700
Cd69       Cd  0.07507677  0.64826501  0.13655052     1.59600
O70         O  0.12906316  0.65855229  0.21459210    -0.81000
O71         O  0.08368997  0.61191885  0.13044994    -1.91500
Cd72       Cd  0.04214416  0.57273063  0.13149169     1.59900
O73         O  0.09166677  0.67188247  0.19759888    -0.81000
O74         O  0.03783061  0.54943003  0.06685282    -0.79600
C75         C  0.11306702  0.68317614  0.05017376     0.82900
C76         C  0.16362405  0.61751962  0.12783314     0.82600
O77         O  0.08099636  0.58251448  0.02673331    -0.78600
C78         C  0.05483781  0.55431433  0.23544945     0.83400
O79         O  0.11826368  0.66026730  0.04027755    -0.78700
C80         C  0.11744055  0.67750524  0.21729991     0.83500
C81         C  0.00450985  0.61048942  0.12878391     0.83900
O82         O  0.02948397  0.63639258  0.13014298    -0.81100
O83         O  0.52577019  0.12819259  0.28947721    -0.78600
C84         C  0.47251725  0.10374010  0.41766694     0.82500
O85         O  0.59857760  0.12342041  0.37092044    -0.79700
O86         O  0.51909359  0.04615670  0.47393709    -0.81200
O87         O  0.46055899  0.01257755  0.31915219    -0.81000
O88         O  0.48214861  0.08515942  0.27473102    -0.79600
Zn89       Zn  0.52787755  0.11590725  0.35681793     1.55700
O90         O  0.45936681  0.00895482  0.39833147    -0.81000
Cd91       Cd  0.49852668  0.05506802  0.30385556     1.59700
Cd92       Cd  0.56305844  0.07492567  0.36776815     1.59600
O93         O  0.52644109  0.04669485  0.25841682    -0.81000
O94         O  0.52164759  0.07382276  0.36279254    -1.91500
Cd95       Cd  0.49376111  0.05257922  0.41785340     1.59900
O96         O  0.56771015  0.05338615  0.30370472    -0.81000
O97         O  0.46981180  0.07748890  0.43502821    -0.79600
C98         C  0.59532040  0.14783617  0.38017450     0.82900
C99         C  0.49871497  0.11505812  0.27126643     0.82600
O100        O  0.49393042  0.12041657  0.38821677    -0.78600
C101        C  0.44833093  0.99770497  0.35788290     0.83400
O102        O  0.56850631  0.14640948  0.38134224    -0.78700
C103        C  0.55199034  0.04534973  0.26436820     0.83500
C104        C  0.54520413  0.04555467  0.47407331     0.83900
O105        O  0.56254852  0.05310545  0.43657431    -0.81100
O106        O  0.61920132  0.96575687  0.07871689    -0.78600
C107        C  0.61904855  0.96565252  0.20326719     0.82500
O108        O  0.51383225  0.95385797  0.12061333    -0.79700
O109        O  0.58972690  0.03461788  0.22680263    -0.81200
O110        O  0.64696520  0.07576362  0.08004976    -0.81000
O111        O  0.64006175  0.01098169  0.03651554    -0.79600
Zn112      Zn  0.58589929  0.96585704  0.11789976     1.55700
O113        O  0.65378180  0.06933064  0.15752626    -0.81000
Cd114      Cd  0.61390596  0.03128311  0.06239093     1.59700
Cd115      Cd  0.54742286  0.00308369  0.12097581     1.59600
O116        O  0.58427693  0.03555780  0.01229593    -0.81000
O117        O  0.59009757  0.00721802  0.11963596    -1.91500
Cd118      Cd  0.61616782  0.02625223  0.17692746     1.59900
O119        O  0.54152371  0.02421655  0.05506934    -0.81000
O120        O  0.63353176  0.99582907  0.20362459    -0.79600
C121        C  0.51716981  0.93022168  0.10715233     0.82900
C122        C  0.63943129  0.98483480  0.04948744     0.82600
O123        O  0.59347426  0.95141521  0.18093802    -0.78600
C124        C  0.66198803  0.08576039  0.11864196     0.83400
O125        O  0.54408334  0.93333130  0.09814545    -0.78700
C126        C  0.55723217  0.03364537  0.01601204     0.83500
C127        C  0.56310225  0.03408930  0.22364692     0.83900
O128        O  0.54569323  0.02434894  0.18619999    -0.81100
C129        C  0.70184568  0.38593291  0.39681466     0.80100
N130        N  0.73285438  0.39874375  0.38716138    -0.78200
C131        C  0.74633521  0.38003686  0.37846857     0.82600
N132        N  0.72854249  0.34791131  0.38063462    -0.78100
C133        C  0.69759903  0.33471205  0.39162567     0.82700
N134        N  0.68448564  0.35398166  0.39910259    -0.79800
C135        C  0.39382447  0.69102713  0.12301366     0.80100
N136        N  0.41339476  0.72218470  0.11439708    -0.78200
C137        C  0.40228347  0.74344407  0.10686315     0.82600
N138        N  0.37080696  0.73302877  0.10727160    -0.78100
C139        C  0.35070914  0.70167036  0.11560974     0.82700
N140        N  0.36250020  0.68101312  0.12369470    -0.79800
O141        O  0.42431591  0.49932050  0.06000178    -0.78600
C142        C  0.41160135  0.46239919  0.19876850     0.82500
O143        O  0.50578194  0.58476478  0.12604542    -0.79700
O144        O  0.51463797  0.50731807  0.23426132    -0.81200
O145        O  0.48465768  0.44110338  0.09020717    -0.81000
O146        O  0.43809607  0.46424002  0.03549532    -0.79600
Zn147      Zn  0.44672849  0.51070754  0.12106114     1.55700
O148        O  0.48604106  0.44138256  0.16954647    -0.81000
Cd149      Cd  0.48158787  0.48125297  0.06865173     1.59700
Cd150      Cd  0.52113190  0.54892788  0.12497384     1.59600
O151        O  0.51693105  0.50883970  0.02086195    -0.81000
O152        O  0.48357521  0.50586017  0.12543837    -1.91500
Cd153      Cd  0.48034935  0.48017265  0.18555504     1.59900
O154        O  0.54627428  0.55336360  0.05960351    -0.81000
O155        O  0.43509635  0.45939219  0.21417839    -0.79600
C156        C  0.47788807  0.58088410  0.13115979     0.82900
C157        C  0.41910043  0.47579410  0.03524492     0.82600
O158        O  0.41441103  0.48184411  0.16506414    -0.78600
C159        C  0.48530741  0.42831724  0.13057100     0.83400
O160        O  0.45482178  0.55347225  0.13226089    -0.78700
C161        C  0.54070943  0.53611479  0.02278539     0.83500
C162        C  0.53922688  0.53395105  0.22996703     0.83900
O163        O  0.54555667  0.55097661  0.19097452    -0.81100
O164        O  0.66386812  0.56525410  0.29716681    -0.78600
C165        C  0.69473695  0.61062756  0.43189571     0.82500
O166        O  0.59056866  0.49248748  0.38621213    -0.79700
O167        O  0.59304178  0.57628960  0.48110315    -0.81200
O168        O  0.62185967  0.64013065  0.32887189    -0.81000
O169        O  0.66590217  0.61182409  0.28376650    -0.79600
Zn170      Zn  0.65143010  0.56250252  0.36419394     1.55700
O171        O  0.62728317  0.64117294  0.40781525    -0.81000
Cd172      Cd  0.62196924  0.59827310  0.31305552     1.59700
Cd173      Cd  0.57936402  0.53132972  0.37719542     1.59600
O174        O  0.58576628  0.57178403  0.26675294    -0.81000
O175        O  0.61828233  0.57236151  0.37211384    -1.91500
Cd176      Cd  0.62723753  0.59928140  0.42871721     1.59900
O177        O  0.55488471  0.52831883  0.31067691    -0.81000
O178        O  0.67320572  0.61426192  0.45182759    -0.79600
C179        C  0.61770422  0.49427418  0.39240385     0.82900
C180        C  0.67754389  0.59305407  0.27924216     0.82600
O181        O  0.68897273  0.59234359  0.39752141    -0.78600
C182        C  0.62580258  0.65413402  0.36800819     0.83400
O183        O  0.64206534  0.52056949  0.38816516    -0.78700
C184        C  0.56107976  0.54525229  0.27153483     0.83500
C185        C  0.56667341  0.55136739  0.47915626     0.83900
O186        O  0.55815054  0.53398066  0.44218146    -0.81100
C187        C  0.40642446  0.66802361  0.13052810    -0.05300
C188        C  0.38624204  0.63656159  0.14468429    -0.05300
C189        C  0.39721351  0.61434073  0.15049571    -0.23400
C190        C  0.42860270  0.62293154  0.14186471     0.18800
C191        C  0.44947341  0.65437097  0.12807678     0.16000
C192        C  0.43830740  0.67688682  0.12283028    -0.18500
C193        C  0.48084889  0.66233755  0.11886662    -0.20300
C194        C  0.49102663  0.63905673  0.12160872    -0.12800
C195        C  0.47005081  0.60752978  0.13414564     0.03800
C196        C  0.43905841  0.60012995  0.14552656    -0.25000
H197        H  0.36176056  0.62894702  0.15112607     0.08900
H198        H  0.38095277  0.59021477  0.16104277     0.12500
H199        H  0.45424878  0.70100739  0.11180780     0.12400
H200        H  0.49729923  0.68637726  0.10831445     0.12200
H201        H  0.51490500  0.64548895  0.11251922     0.12700
H202        H  0.42239759  0.57607054  0.15576474     0.14700
C203        C  0.68754311  0.40681586  0.40615140    -0.05300
C204        C  0.70601152  0.43636616  0.42599064    -0.05300
C205        C  0.69393763  0.45729435  0.43292987    -0.23400
C206        C  0.66331729  0.44953169  0.41898587     0.18800
C207        C  0.64402471  0.41976272  0.39978086     0.16000
C208        C  0.65610148  0.39819929  0.39430743    -0.18500
C209        C  0.61363928  0.41292707  0.38456110    -0.20300
C210        C  0.60343846  0.43617452  0.38530977    -0.12800
C211        C  0.62325264  0.46635998  0.40226091     0.03800
C212        C  0.65251243  0.47200423  0.42136617    -0.25000
H213        H  0.73002553  0.44342301  0.43599106     0.08900
H214        H  0.70897958  0.48009564  0.44772942     0.12500
H215        H  0.64161097  0.37548442  0.37885118     0.12400
H216        H  0.59836966  0.39018912  0.36982218     0.12200
H217        H  0.58094168  0.43117742  0.37013169     0.12700
H218        H  0.66806563  0.49503644  0.43509617     0.14700
C219        C  0.42494134  0.77750364  0.09831457    -0.05300
C220        C  0.45481937  0.78542163  0.08097446    -0.05300
C221        C  0.47774982  0.81689449  0.07649478    -0.23400
C222        C  0.47157308  0.84137002  0.08979697     0.18800
C223        C  0.44156268  0.83416238  0.10623163     0.16000
C224        C  0.41819303  0.80219473  0.10985722    -0.18500
C225        C  0.43594279  0.85905735  0.12006237    -0.20300
C226        C  0.46001990  0.89049622  0.11902642    -0.12800
C227        C  0.49015856  0.89775376  0.10372339     0.03800
C228        C  0.49535447  0.87284170  0.08823451    -0.25000
H229        H  0.46068983  0.76711443  0.07130846     0.08900
H230        H  0.50062275  0.82203262  0.06364327     0.12500
H231        H  0.39534711  0.79652024  0.12345135     0.12400
H232        H  0.41311596  0.85413436  0.13278400     0.12200
H233        H  0.45523718  0.90899254  0.13130450     0.12700
H234        H  0.51833810  0.87771314  0.07624129     0.14700
C235        C  0.62224159  0.17962716  0.38752650    -0.05300
C236        C  0.65086784  0.19007625  0.36402806    -0.05300
C237        C  0.67280343  0.22243774  0.36252011    -0.23400
C238        C  0.66625589  0.24486088  0.38396942     0.18800
C239        C  0.63819319  0.23408369  0.40962301     0.16000
C240        C  0.61690643  0.20179403  0.41198903    -0.18500
C241        C  0.63087763  0.25584978  0.43060263    -0.20300
C242        C  0.65047951  0.28820352  0.42475938    -0.12800
C243        C  0.67820768  0.29977137  0.39836207     0.03800
C244        C  0.68643195  0.27779881  0.37893987    -0.25000
H245        H  0.65550468  0.17361137  0.34458681     0.08900
H246        H  0.69423182  0.23007553  0.34280878     0.12500
H247        H  0.59504718  0.19413059  0.43062331     0.12400
H248        H  0.60946862  0.24787502  0.45054664     0.12200
H249        H  0.64369391  0.30426381  0.44093479     0.12700
H250        H  0.70776901  0.28626417  0.35866953     0.14700
C251        C  0.31617421  0.68955118  0.11335560    -0.05300
C252        C  0.30340599  0.70546631  0.08477844    -0.05300
C253        C  0.27103406  0.69322766  0.07976676    -0.23400
C254        C  0.25058929  0.66510637  0.10406988     0.18800
C255        C  0.26294223  0.64923214  0.13405981     0.16000
C256        C  0.29562676  0.66125787  0.13794526    -0.18500
C257        C  0.24233479  0.62189760  0.16007908    -0.20300
C258        C  0.20992826  0.61084537  0.15710282    -0.12800
C259        C  0.19739999  0.62617961  0.12674493     0.03800
C260        C  0.21801320  0.65310123  0.09978552    -0.25000
H261        H  0.31851747  0.72708470  0.06524668     0.08900
H262        H  0.26197668  0.70587934  0.05696992     0.12500
H263        H  0.30505392  0.64881259  0.16047473     0.12400
H264        H  0.25130221  0.60952007  0.18362837     0.12200
H265        H  0.19462324  0.59045587  0.17886577     0.12700
H266        H  0.20872254  0.66572397  0.07734385     0.14700
C267        C  0.89896863  0.46031750  0.37221152    -0.05300
C268        C  0.88695252  0.47429119  0.40321240    -0.05300
C269        C  0.85468425  0.46270361  0.40797612    -0.23400
C270        C  0.83369509  0.43618461  0.38304063     0.18800
C271        C  0.84540983  0.42208427  0.35132989     0.16000
C272        C  0.87792063  0.43471169  0.34524105    -0.18500
C273        C  0.82443617  0.39471288  0.32801523    -0.20300
C274        C  0.79231077  0.38095472  0.33702590    -0.12800
C275        C  0.78038335  0.39478680  0.36842510     0.03800
C276        C  0.80128381  0.42284467  0.39061192    -0.25000
H277        H  0.90258253  0.49377630  0.42465820     0.08900
H278        H  0.84614825  0.47375863  0.43260241     0.12500
H279        H  0.88683194  0.42323531  0.32198102     0.12400
H280        H  0.83294896  0.38348396  0.30365976     0.12200
H281        H  0.77671363  0.35956427  0.31918596     0.12700
H282        H  0.79240984  0.43363213  0.41519624     0.14700
C283        C  0.19745332  0.43608290  0.34271380    -0.05300
C284        C  0.17211905  0.42057252  0.31176806    -0.05300
C285        C  0.14687716  0.42710892  0.31167542    -0.23400
C286        C  0.14677718  0.44958097  0.34209780     0.18800
C287        C  0.17267716  0.46628629  0.37204577     0.16000
C288        C  0.19774558  0.45922570  0.37246101    -0.18500
C289        C  0.17271767  0.48928396  0.40170491    -0.20300
C290        C  0.14680031  0.49484364  0.40287735    -0.12800
C291        C  0.12048092  0.47714892  0.37493890     0.03800
C292        C  0.12081359  0.45497829  0.34400896    -0.25000
H293        H  0.17140305  0.40269536  0.28855518     0.08900
H294        H  0.12724946  0.41427079  0.28832222     0.12500
H295        H  0.21736937  0.47162622  0.39605428     0.12400
H296        H  0.19245705  0.50242779  0.42469356     0.12200
H297        H  0.14669454  0.51180671  0.42720025     0.12700
H298        H  0.10046967  0.44137625  0.32227017     0.14700
C299        C  0.28902374  0.43627380  0.42409276    -0.05300
C300        C  0.29315586  0.46053052  0.45452199    -0.05300
C301        C  0.32099588  0.47603692  0.48038251    -0.23400
C302        C  0.34521324  0.46795919  0.47509466     0.18800
C303        C  0.34075332  0.44312354  0.44537259     0.16000
C304        C  0.31248467  0.42681985  0.42176139    -0.18500
C305        C  0.35223061  0.41812592  0.96075082    -0.20300
C306        C  0.38145530  0.43363851  0.98252192    -0.12800
C307        C  0.38926469  0.46068990  0.00883355     0.03800
C308        C  0.37373452  0.48402868  0.49902757    -0.25000
H309        H  0.27560823  0.46845929  0.45664805     0.08900
H310        H  0.32401415  0.49502604  0.50315705     0.12500
H311        H  0.30967274  0.40789069  0.39894506     0.12400
H312        H  0.34687683  0.39753104  0.94010519     0.12200
H313        H  0.39784790  0.42433078  0.97902657     0.12700
H314        H  0.37686511  0.50244044  0.52311667     0.14700
C315        C  0.26812599  0.40264118  0.26704116    -0.05300
C316        C  0.27212845  0.42247354  0.22684625    -0.05300
C317        C  0.30007634  0.43510810  0.20131313    -0.23400
C318        C  0.32439806  0.42866306  0.21677434     0.18800
C319        C  0.31889442  0.40563079  0.25326802     0.16000
C320        C  0.28975715  0.39091991  0.27558383    -0.18500
C321        C  0.34355621  0.40026501  0.27042719    -0.20300
C322        C  0.37387316  0.41880455  0.25323516    -0.12800
C323        C  0.37981178  0.44249630  0.21795415     0.03800
C324        C  0.35461435  0.44650642  0.19886326    -0.25000
H325        H  0.25575382  0.43160202  0.21908649     0.08900
H326        H  0.30383420  0.45239013  0.17278233     0.12500
H327        H  0.28646814  0.37501093  0.30598940     0.12400
H328        H  0.33967176  0.38274892  0.29864253     0.12200
H329        H  0.39266687  0.41480393  0.26782493     0.12700
H330        H  0.35861507  0.46440473  0.17119854     0.14700
C331        C  0.97525408  0.61281735  0.12485808    -0.05300
C332        C  0.94890072  0.59298481  0.15196385    -0.05300
C333        C  0.92370242  0.59972101  0.15437272    -0.23400
C334        C  0.92453153  0.62617437  0.12933595     0.18800
C335        C  0.95032296  0.64510476  0.09994087     0.16000
C336        C  0.97540575  0.63832384  0.09800984    -0.18500
C337        C  0.95110676  0.67112914  0.07401316    -0.20300
C338        C  0.92678607  0.67882374  0.07788023    -0.12800
C339        C  0.90164089  0.66100878  0.10839559     0.03800
C340        C  0.90045555  0.63449645  0.13382266    -0.25000
H341        H  0.94851087  0.57337798  0.17313957     0.08900
H342        H  0.90398525  0.58478860  0.17677393     0.12500
H343        H  0.99565815  0.65360180  0.07672401     0.12400
H344        H  0.97071232  0.68576059  0.05120311     0.12200
H345        H  0.92804902  0.69929024  0.05806384     0.12700
H346        H  0.88085149  0.62042521  0.15698635     0.14700
C347        C  0.82037606  0.66542319  0.20380407    -0.05300
C348        C  0.81372286  0.68705751  0.22690109    -0.05300
C349        C  0.78497806  0.67687181  0.24929893    -0.23400
C350        C  0.76213325  0.64515564  0.24692655     0.18800
C351        C  0.76958179  0.62296951  0.22639458     0.16000
C352        C  0.79906750  0.63312913  0.20638546    -0.18500
C353        C  0.74669354  0.59142923  0.22294028    -0.20300
C354        C  0.71644627  0.58203301  0.23871334    -0.12800
C355        C  0.70852823  0.60400727  0.25797999     0.03800
C356        C  0.73161640  0.63551095  0.26265948    -0.25000
H357        H  0.82968011  0.71215711  0.22408430     0.08900
H358        H  0.77977819  0.69415864  0.26519633     0.12500
H359        H  0.80384035  0.61656585  0.18730240     0.12400
H360        H  0.75203351  0.57415755  0.20730261     0.12200
H361        H  0.69915040  0.55748104  0.23588276     0.12700
H362        H  0.72590327  0.65237423  0.27885123     0.14700
C363        C  0.72741634  0.62772144  0.44795080    -0.05300
C364        C  0.74824535  0.61588617  0.43747764    -0.05300
C365        C  0.77910153  0.63110266  0.45297003    -0.23400
C366        C  0.78563885  0.65561701  0.98471217     0.18800
C367        C  0.76640568  0.66986985  0.99349107     0.16000
C368        C  0.73546607  0.65597332  0.97664672    -0.18500
C369        C  0.77789321  0.69663514  0.02143080    -0.20300
C370        C  0.80642130  0.70664669  0.04513306    -0.12800
C371        C  0.82400661  0.69032220  0.04068560     0.03800
C372        C  0.81474645  0.66654845  0.00729506    -0.25000
H373        H  0.74044778  0.59425608  0.41830252     0.08900
H374        H  0.79427546  0.62076183  0.44604380     0.12500
H375        H  0.72042980  0.66638197  0.98418909     0.12400
H376        H  0.76379755  0.70824455  0.02795058     0.12200
H377        H  0.81319969  0.72507232  0.07076221     0.12700
H378        H  0.82797408  0.65363408  0.00386593     0.14700
C379        C  0.63138845  0.68734002  0.36709310    -0.05300
C380        C  0.62682633  0.70168646  0.32516852    -0.05300
C381        C  0.63654953  0.73422495  0.32245881    -0.23400
C382        C  0.65135605  0.75300935  0.36143016     0.18800
C383        C  0.65526128  0.73866393  0.40413212     0.16000
C384        C  0.64499426  0.70597905  0.40683444    -0.18500
C385        C  0.67013200  0.75734893  0.44310056    -0.20300
C386        C  0.68126122  0.79004968  0.43974468    -0.12800
C387        C  0.67791585  0.80467915  0.39728459     0.03800
C388        C  0.66276892  0.78592653  0.35822314    -0.25000
H389        H  0.61647035  0.68789255  0.29403427     0.08900
H390        H  0.63321103  0.74480675  0.28951426     0.12500
H391        H  0.64895695  0.69535429  0.43929099     0.12400
H392        H  0.67336024  0.74670646  0.47606655     0.12200
H393        H  0.69280407  0.80396024  0.47031009     0.12700
H394        H  0.65970160  0.79686800  0.32543597     0.14700
C395        C  0.69606703  0.90286075  0.47200460    -0.05300
C396        C  0.67670474  0.88497922  0.50998799    -0.05300
C397        C  0.66221136  0.89791889  0.53786569    -0.23400
C398        C  0.66646095  0.92864143  0.52746474     0.18800
C399        C  0.68802338  0.94763357  0.49216326     0.16000
C400        C  0.70353060  0.93499987  0.46596047    -0.18500
C401        C  0.70452421  0.98462219  0.97734785    -0.20300
C402        C  0.68421761  0.99460499  0.99618122    -0.12800
C403        C  0.66279063  0.97615100  0.03162776     0.03800
C404        C  0.64824925  0.94001278  0.54973676    -0.25000
H405        H  0.67067797  0.86025078  0.51571194     0.08900
H406        H  0.64603321  0.88317635  0.56526429     0.12500
H407        H  0.71885591  0.94929177  0.43735243     0.12400
H408        H  0.71991983  0.99849053  0.94858265     0.12200
H409        H  0.68461755  0.01619513  0.98198465     0.12700
H410        H  0.63131638  0.92511938  0.57620915     0.14700
C411        C  0.63231064  0.94615674  0.22601545    -0.05300
C412        C  0.61324385  0.91331763  0.23211172    -0.05300
C413        C  0.62548626  0.89378594  0.24978725    -0.23400
C414        C  0.65702357  0.90670646  0.26225527     0.18800
C415        C  0.67673122  0.93957588  0.25542267     0.16000
C416        C  0.66428933  0.95912815  0.23697407    -0.18500
C417        C  0.70810768  0.95243148  0.26951794    -0.20300
C418        C  0.71874173  0.93355656  0.29495330    -0.12800
C419        C  0.69848636  0.90140947  0.30486261     0.03800
C420        C  0.66842359  0.88764521  0.28520309    -0.25000
H421        H  0.58864855  0.90258503  0.22317368     0.08900
H422        H  0.61007184  0.86867763  0.25490341     0.12500
H423        H  0.67935580  0.98428258  0.23142645     0.12400
H424        H  0.72367263  0.97748609  0.26428913     0.12200
H425        H  0.74187641  0.94462528  0.31058449     0.12700
H426        H  0.65248988  0.86301347  0.29365590     0.14700
C427        C  0.80299736  0.19810995  0.14600260    -0.05300
C428        C  0.79115033  0.18255073  0.19006219    -0.05300
C429        C  0.76018733  0.15933692  0.19432757    -0.23400
C430        C  0.74046244  0.15112715  0.15459512     0.18800
C431        C  0.75169276  0.16733122  0.11046792     0.16000
C432        C  0.78285493  0.19080628  0.10645484    -0.18500
C433        C  0.73185682  0.15896655  0.07076094    -0.20300
C434        C  0.70182348  0.13354029  0.07411045    -0.12800
C435        C  0.69104710  0.11619282  0.11731887     0.03800
C436        C  0.71016075  0.12597955  0.15787222    -0.25000
H437        H  0.80598431  0.18778724  0.22125437     0.08900
H438        H  0.75190493  0.14723789  0.22845939     0.12500
H439        H  0.79152092  0.20278566  0.07235174     0.12400
H440        H  0.73994766  0.17129186  0.03672632     0.12200
H441        H  0.68754385  0.12665279  0.04230301     0.12700
H442        H  0.70217417  0.11294925  0.19145593     0.14700
C443        C  0.97139030  0.37417616  0.29058433    -0.05300
C444        C  0.98719787  0.37277859  0.25047864    -0.05300
C445        C  0.97603112  0.34487009  0.22583552    -0.23400
C446        C  0.94822684  0.31848871  0.24008226     0.18800
C447        C  0.93238275  0.31950757  0.28103240     0.16000
C448        C  0.94466145  0.34724101  0.30699993    -0.18500
C449        C  0.90359468  0.29358098  0.29322441    -0.20300
C450        C  0.88900369  0.26864251  0.26200895    -0.12800
C451        C  0.90370318  0.26889166  0.21935085     0.03800
C452        C  0.93461484  0.29234180  0.21131579    -0.25000
H453        H  0.00817987  0.39334097  0.23827273     0.14300
H454        H  0.98829303  0.34440950  0.19435427     0.12500
H455        H  0.93268188  0.34848462  0.33833418     0.12400
H456        H  0.89124940  0.29383809  0.32471827     0.12200
H457        H  0.86531615  0.25071965  0.26932936     0.12700
H458        H  0.94661466  0.29248165  0.17913622     0.14700
C459        C  0.96617016  0.38448266  0.50676705    -0.05300
C460        C  0.98297847  0.37051946  0.52963809    -0.05300
C461        C  0.96747642  0.34011199  0.54993410    -0.23400
C462        C  0.94182672  0.32234574  0.02928189     0.18800
C463        C  0.92443445  0.33644631  0.00808144     0.16000
C464        C  0.93984123  0.36836224  0.99275007    -0.18500
C465        C  0.89182429  0.31871104  0.00459261    -0.20300
C466        C  0.87639719  0.28878201  0.02726074    -0.12800
C467        C  0.89357256  0.27614227  0.05254623     0.03800
C468        C  0.92630775  0.29173081  0.04925023    -0.25000
H469        H  0.00821486  0.38313098  0.53167170     0.08900
H470        H  0.98093512  0.33005999  0.56808826     0.12500
H471        H  0.92660292  0.37918252  0.97607104     0.12400
H472        H  0.87814770  0.32896438  0.98775488     0.12200
H473        H  0.85116600  0.27723545  0.02932605     0.12700
H474        H  0.93971569  0.28189759  0.06824800     0.14700
C475        C  0.30865017  0.88505553  0.39041623    -0.05300
C476        C  0.32357392  0.89425162  0.43474248    -0.05300
C477        C  0.35517413  0.91574937  0.43724730    -0.23400
C478        C  0.37227870  0.92863967  0.39548031     0.18800
C479        C  0.35785841  0.91849323  0.35080945     0.16000
C480        C  0.32622564  0.89654170  0.34856783    -0.18500
C481        C  0.37492118  0.93161257  0.30904252    -0.20300
C482        C  0.40532878  0.95615179  0.31143456    -0.12800
C483        C  0.41919825  0.96770634  0.35566486     0.03800
C484        C  0.40300554  0.95281438  0.39763639    -0.25000
H485        H  0.31071978  0.88537197  0.46764354     0.08900
H486        H  0.36594006  0.92310029  0.47177848     0.12500
H487        H  0.31509076  0.88947071  0.31418791     0.12400
H488        H  0.36430438  0.92391106  0.27452405     0.12200
H489        H  0.41740826  0.96705788  0.27852068     0.12700
H490        H  0.41348424  0.96137122  0.43197161     0.14700
C491        C  0.12663189  0.71228074  0.02114754    -0.05300
C492        C  0.10927849  0.71677320  0.98403737    -0.05300
C493        C  0.12175269  0.74514399  0.95736797    -0.23400
C494        C  0.19481012  0.76253983  0.49376583     0.18800
C495        C  0.16459126  0.75835753  0.50340935     0.16000
C496        C  0.14072275  0.72806874  0.51469655    -0.18500
C497        C  0.15846531  0.78432178  0.49940426    -0.20300
C498        C  0.18111933  0.81325063  0.48055577    -0.12800
C499        C  0.21048175  0.81678583  0.46823008     0.03800
C500        C  0.21803431  0.79226133  0.47883858    -0.25000
H501        H  0.08618737  0.69824625  0.97561598     0.08900
H502        H  0.10833716  0.74796226  0.92796461     0.12500
H503        H  0.11771707  0.72505182  0.52300764     0.12400
H504        H  0.13543232  0.78151650  0.50683059     0.12200
H505        H  0.17480909  0.83176904  0.47134941     0.12700
H506        H  0.24048510  0.79478048  0.46799020     0.14700
C507        C  0.13455226  0.70770363  0.24117760    -0.05300
C508        C  0.11780560  0.72054637  0.26410677    -0.05300
C509        C  0.13322773  0.75043461  0.28322059    -0.23400
C510        C  0.16568723  0.76810058  0.27934366     0.18800
C511        C  0.18281340  0.75595169  0.25502300     0.16000
C512        C  0.16709960  0.72564772  0.23613085    -0.18500
C513        C  0.21538756  0.77396376  0.25149763    -0.20300
C514        C  0.23100979  0.80210997  0.27609033    -0.12800
C515        C  0.21413994  0.81271572  0.30379382     0.03800
C516        C  0.18138260  0.79680047  0.30217575    -0.25000
H517        H  0.09265347  0.70732668  0.26734376     0.08900
H518        H  0.11982815  0.75951127  0.30167205     0.12500
H519        H  0.17999834  0.71622542  0.21711292     0.12400
H520        H  0.22888107  0.76530288  0.23236775     0.12200
H521        H  0.25628623  0.81391596  0.27683870     0.12700
H522        H  0.16815205  0.80501252  0.32299069     0.14700
C523        C  0.43151269  0.27769886  0.10819301    -0.05300
C524        C  0.42954483  0.29180527  0.06436153    -0.05300
C525        C  0.44251894  0.32464565  0.05888178    -0.23400
C526        C  0.45764370  0.34394294  0.09717309     0.18800
C527        C  0.46030725  0.33010575  0.14115895     0.16000
C528        C  0.44730431  0.29712699  0.14636487    -0.18500
C529        C  0.47511977  0.34943941  0.17959730    -0.20300
C530        C  0.48542627  0.38202493  0.17533156    -0.12800
C531        C  0.48158968  0.39581678  0.13230754     0.03800
C532        C  0.46882870  0.37671851  0.09278394    -0.25000
H533        H  0.41770201  0.27743842  0.03433797     0.08900
H534        H  0.44026014  0.33491427  0.02493319     0.12500
H535        H  0.44937170  0.28667090  0.18026353     0.12400
H536        H  0.47755652  0.33922300  0.21348784     0.12200
H537        H  0.49517714  0.39622554  0.20628683     0.12700
H538        H  0.46547712  0.38695952  0.05948370     0.14700
C539        C  0.48558083  0.13524375  0.25156590    -0.05300
C540        C  0.50561286  0.16616772  0.23508285    -0.05300
C541        C  0.49382136  0.18697222  0.22204885    -0.23400
C542        C  0.46177402  0.17713160  0.22526879     0.18800
C543        C  0.44138512  0.14617614  0.24237457     0.16000
C544        C  0.45345867  0.12542296  0.25560721    -0.18500
C545        C  0.40916460  0.13613551  0.24383741    -0.20300
C546        C  0.39708786  0.15532638  0.22345182    -0.12800
C547        C  0.41722623  0.18525327  0.20367236     0.03800
C548        C  0.44958262  0.19693832  0.20806482    -0.25000
H549        H  0.53051299  0.17433910  0.23264368     0.08900
H550        H  0.50968617  0.21056420  0.20873900     0.12500
H551        H  0.43798174  0.10184793  0.26950458     0.12400
H552        H  0.39321633  0.11257124  0.25711846     0.12200
H553        H  0.37206067  0.14576204  0.21927864     0.12700
H554        H  0.46515122  0.21971351  0.19163376     0.14700
C555        C  0.40327819  0.17507275  0.03968376    -0.05300
C556        C  0.41826128  0.19098558  0.99733450    -0.05300
C557        C  0.43145127  0.17756103  0.96779964    -0.23400
C558        C  0.43031784  0.14836962  0.98075589     0.18800
C559        C  0.41259056  0.13083753  0.02055228     0.16000
C560        C  0.39818103  0.14378120  0.04863376    -0.18500
C561        C  0.41176511  0.10187270  0.03405563    -0.20300
C562        C  0.42996738  0.09130986  0.01013139    -0.12800
C563        C  0.45067011  0.11557580  0.43175487     0.03800
C564        C  0.45640010  0.14646765  0.41781354    -0.25000
H565        H  0.42222411  0.21490233  0.98911304     0.08900
H566        H  0.46547339  0.20604291  0.40346197     0.12500
H567        H  0.38608559  0.13083256  0.08057992     0.12400
H568        H  0.39814327  0.08809159  0.06441239     0.12200
H569        H  0.42982027  0.06945076  0.02230599     0.12700
H570        H  0.47608603  0.16113964  0.39516327     0.14700
C571        C  0.42950998  0.25165970  0.57716444     0.80100
N572        N  0.42744108  0.23506778  0.61850942    -0.78200
C573        C  0.41647497  0.20328409  0.61852304     0.82600
N574        N  0.40842223  0.18834157  0.57691576    -0.78100
C575        C  0.41135943  0.20446369  0.53509525     0.82700
N576        N  0.42220040  0.23631580  0.53533830    -0.79800
C577        C  0.26337410  0.87041681  0.86600728     0.80100
N578        N  0.24541194  0.85845780  0.90557070    -0.78200
C579        C  0.21486689  0.83736921  0.90209578     0.82600
N580        N  0.20243342  0.82822393  0.85865390    -0.78100
C581        C  0.21975427  0.83891170  0.81871602     0.82700
N582        N  0.25069395  0.85978478  0.82234049    -0.79800
C583        C  0.82896162  0.22358183  0.66330331     0.80100
N584        N  0.84181233  0.23731112  0.62042421    -0.78200
C585        C  0.87262658  0.25827948  0.61764671     0.82600
N586        N  0.88995392  0.26591344  0.65776734    -0.78100
C587        C  0.87744662  0.25364476  0.70072100     0.82700
N588        N  0.84672306  0.23254415  0.70352434    -0.79800
C589        C  0.68904032  0.84168512  0.90160184     0.80100
N590        N  0.68808047  0.85545593  0.85867818    -0.78200
C591        C  0.69993984  0.88735388  0.85390516     0.82600
N592        N  0.71154688  0.90508949  0.89244829    -0.78100
C593        C  0.71102274  0.89192845  0.93602242     0.82700
N594        N  0.69971665  0.85999879  0.94047304    -0.79800
C595        C  0.87534890  0.67064344  0.61279441     0.80100
N596        N  0.86695743  0.68306132  0.57411206    -0.78200
C597        C  0.84439801  0.69215297  0.57743579     0.82600
N598        N  0.83034536  0.68871825  0.61966734    -0.78100
C599        C  0.83750738  0.67556530  0.65810186     0.82700
N600        N  0.85953174  0.66555663  0.65452996    -0.79800
C601        C  0.22546626  0.43396452  0.85057320     0.80100
N602        N  0.23974271  0.43456844  0.89316694    -0.78200
C603        C  0.26095858  0.42343299  0.89693436     0.82600
N604        N  0.26818904  0.41279008  0.85787925    -0.78100
C605        C  0.25566233  0.41346020  0.81491174     0.82700
N606        N  0.23416382  0.42421075  0.81121151    -0.79800
O607        O  0.01601350  0.51316056  0.98771388    -0.78600
C608        C  0.93415631  0.47158554  0.87857232     0.82500
O609        O  0.01707624  0.42915735  0.96544523    -0.79700
O610        O  0.98131252  0.42897943  0.80376535    -0.81200
O611        O  0.05605899  0.54576295  0.81715474    -0.81000
O612        O  0.05918884  0.54658744  0.94781529    -0.79600
Zn613      Zn  0.98980446  0.47903205  0.93987190     1.55700
O614        O  0.01626158  0.50916518  0.77580049    -0.81000
Cd615      Cd  0.05565438  0.52328538  0.88360872     1.59700
Cd616      Cd  0.02895726  0.44910278  0.89905183     1.59600
O617        O  0.09552020  0.51629466  0.88097169    -0.81000
O618        O  0.01612773  0.48247442  0.88682030    -1.91500
Cd619      Cd  0.99110154  0.47348714  0.82696922     1.59900
O620        O  0.07467434  0.46384708  0.88703444    -0.81000
O621        O  0.94675280  0.46870064  0.84086933    -0.79600
C622        C  0.98891650  0.41869251  0.97811664     0.82900
C623        C  0.04254386  0.53810109  0.98579456     0.82600
O624        O  0.94927699  0.47941197  0.91780657    -0.78600
C625        C  0.04077740  0.53599545  0.77815048     0.83400
O626        O  0.97434266  0.43468353  0.96925327    -0.78700
C627        C  0.09802366  0.49085606  0.88109775     0.83500
C628        C  0.98792319  0.40768553  0.82083977     0.83900
O629        O  0.00568072  0.41195119  0.85645570    -0.81100
O630        O  0.14667543  0.60237285  0.60388098    -0.78600
C631        C  0.05287765  0.55175504  0.52869571     0.82500
O632        O  0.09645436  0.66828314  0.54673618    -0.79700
O633        O  0.00386419  0.58416191  0.62803174    -0.81200
O634        O  0.07794451  0.58208852  0.73653597    -0.81000
O635        O  0.14939959  0.62080756  0.67627268    -0.79600
Zn636      Zn  0.10864243  0.60639043  0.57694479     1.55700
O637        O  0.03665862  0.54751137  0.69523223    -0.81000
Cd638      Cd  0.10535080  0.61735073  0.68664965     1.59700
Cd639      Cd  0.07456175  0.64579037  0.60791465     1.59600
O640        O  0.11707015  0.66230901  0.70948348    -0.81000
O641        O  0.08210681  0.60915291  0.62534323    -1.91500
Cd642      Cd  0.04005174  0.57108130  0.62838537     1.59900
O643        O  0.09493345  0.68105821  0.65558376    -0.81000
O644        O  0.03486699  0.54628612  0.56464831    -0.79600
C645        C  0.12283208  0.67111857  0.53517688     0.82900
C646        C  0.16191651  0.61412004  0.64201269     0.82600
O647        O  0.08129965  0.57349036  0.52892523    -0.78600
C648        C  0.05230618  0.55629793  0.73417521     0.83400
O649        O  0.13029833  0.64929026  0.54479798    -0.78700
C650        C  0.11182071  0.68442594  0.69216807     0.83500
C651        C  0.00372843  0.61014612  0.61570313     0.83900
O652        O  0.02866412  0.63473666  0.60399391    -0.81100
O653        O  0.51290984  0.13523126  0.81635274    -0.78600
C654        C  0.47008908  0.09960735  0.94874799     0.82500
O655        O  0.59408355  0.12641028  0.87412682    -0.79700
O656        O  0.51684284  0.04038784  0.97565770    -0.81200
O657        O  0.45354581  0.01835700  0.82268162    -0.81000
O658        O  0.48055288  0.09203762  0.77866733    -0.79600
Zn659      Zn  0.52176064  0.11814850  0.87665211     1.55700
O660        O  0.45370090  0.00773615  0.90053778    -0.81000
Cd661      Cd  0.49339851  0.05994582  0.81036830     1.59700
Cd662      Cd  0.55847039  0.07804653  0.87117052     1.59600
O663        O  0.51953322  0.04993850  0.76353619    -0.81000
O664        O  0.51634845  0.07616751  0.87103830    -1.91500
Cd665      Cd  0.48967804  0.04941283  0.92522083     1.59900
O666        O  0.56173583  0.05719751  0.80646429    -0.81000
O667        O  0.46686256  0.07174707  0.95606458    -0.79600
C668        C  0.59145246  0.15042237  0.88761395     0.82900
C669        C  0.49283581  0.12177048  0.78409909     0.82600
O670        O  0.49089294  0.11938139  0.92085091    -0.78600
C671        C  0.44146595  0.00055174  0.85926223     0.83400
O672        O  0.56477922  0.14849996  0.89472515    -0.78700
C673        C  0.54519567  0.04876696  0.76808024     0.83500
C674        C  0.54440075  0.04333942  0.97358482     0.83900
O675        O  0.56151908  0.05489263  0.93622504    -0.81100
O676        O  0.60928345  0.96226312  0.58677020    -0.78600
C677        C  0.61084934  0.96749447  0.71833896     0.82500
O678        O  0.50638268  0.95729734  0.62667596    -0.79700
O679        O  0.58169958  0.03636227  0.73216466    -0.81200
O680        O  0.64397764  0.07558757  0.59012576    -0.81000
O681        O  0.63324944  0.00825980  0.54685848    -0.79600
Zn682      Zn  0.57864933  0.96587111  0.62868485     1.55700
O683        O  0.64664394  0.07000909  0.66874696    -0.81000
Cd684      Cd  0.60981339  0.03149277  0.57169279     1.59700
Cd685      Cd  0.54172988  0.00609041  0.62519598     1.59600
O686        O  0.58273099  0.03714090  0.51872954    -0.81000
O687        O  0.58381469  0.00789193  0.62760874    -1.91500
Cd688      Cd  0.60860387  0.02726285  0.68563739     1.59900
O689        O  0.53871507  0.02720338  0.55681259    -0.81000
O690        O  0.62474817  0.99763662  0.71786988    -0.79600
C691        C  0.50921007  0.93252331  0.61819382     0.82900
C692        C  0.62998740  0.98072846  0.55756005     0.82600
O693        O  0.58730531  0.95233154  0.69210846    -0.78600
C694        C  0.65685691  0.08603129  0.63000589     0.83400
O695        O  0.53593589  0.93423294  0.61294450    -0.78700
C696        C  0.55593596  0.03603100  0.51911982     0.83500
C697        C  0.55584853  0.03719431  0.72745572     0.83900
O698        O  0.53918505  0.02841971  0.68912722    -0.81100
C699        C  0.70266252  0.38892971  0.90119120     0.80100
N700        N  0.73385949  0.40139609  0.89315165    -0.78200
C701        C  0.74730045  0.38234995  0.88663524     0.82600
N702        N  0.72920232  0.35023982  0.88934196    -0.78100
C703        C  0.69806458  0.33738331  0.89881375     0.82700
N704        N  0.68503813  0.35698476  0.90414611    -0.79800
C705        C  0.39378749  0.69301902  0.63970268     0.80100
N706        N  0.41197545  0.72448658  0.63123428    -0.78200
C707        C  0.39964462  0.74496094  0.62966889     0.82600
N708        N  0.36835296  0.73345397  0.63649709    -0.78100
C709        C  0.34950020  0.70171538  0.64406272     0.82700
N710        N  0.36250629  0.68179014  0.64580045    -0.79800
O711        O  0.42858695  0.50935933  0.55340740    -0.78600
C712        C  0.41301298  0.46725383  0.69147099     0.82500
O713        O  0.50897733  0.59067056  0.62223487    -0.79700
O714        O  0.51495892  0.51094774  0.73011560    -0.81200
O715        O  0.48490374  0.44672199  0.58252006    -0.81000
O716        O  0.44363325  0.47594206  0.52566817    -0.79600
Zn717      Zn  0.44919012  0.51743631  0.61643964     1.55700
O718        O  0.48714249  0.44587912  0.66172328    -0.81000
Cd719      Cd  0.48437579  0.48836680  0.56345367     1.59700
Cd720      Cd  0.52401359  0.55462519  0.62170778     1.59600
O721        O  0.52089243  0.51480873  0.51864863    -0.81000
O722        O  0.48589155  0.51202500  0.62069512    -1.91500
Cd723      Cd  0.48190890  0.48484220  0.67921725     1.59900
O724        O  0.55063609  0.55909574  0.55742392    -0.81000
O725        O  0.43657750  0.46425914  0.70648254    -0.79600
C726        C  0.48146425  0.58721331  0.62994243     0.82900
C727        C  0.42517334  0.48810065  0.52490988     0.82600
O728        O  0.41564678  0.48696923  0.65818248    -0.78600
C729        C  0.48573063  0.43321728  0.62206917     0.83400
O730        O  0.45799712  0.56001934  0.63201627    -0.78700
C731        C  0.54509171  0.54155333  0.52091372     0.83500
C732        C  0.53913102  0.53802107  0.72801359     0.83900
O733        O  0.54631909  0.55582351  0.68971729    -0.81100
O734        O  0.65961388  0.57121311  0.79505403    -0.78600
C735        C  0.69120443  0.61228936  0.93387021     0.82500
O736        O  0.59019460  0.49503371  0.88184169    -0.79700
O737        O  0.58815822  0.57286802  0.98381934    -0.81200
O738        O  0.61617898  0.64280648  0.83850586    -0.81000
O739        O  0.66183129  0.61812335  0.78623593    -0.79600
Zn740      Zn  0.64856019  0.56664363  0.86301517     1.55700
O741        O  0.62207270  0.64184707  0.91737167    -0.81000
Cd742      Cd  0.61797041  0.60254726  0.81776279     1.59700
Cd743      Cd  0.57683101  0.53250680  0.87640070     1.59600
O744        O  0.58290418  0.57655126  0.76948748    -0.81000
O745        O  0.61469741  0.57473120  0.87433625    -1.91500
Cd746      Cd  0.62297571  0.59942514  0.93337160     1.59900
O747        O  0.55334794  0.53054994  0.80901235    -0.81000
O748        O  0.66927562  0.61406022  0.95599498    -0.79600
C749        C  0.61775453  0.49775792  0.88711962     0.82900
C750        C  0.67271692  0.59918133  0.77765797     0.82600
O751        O  0.68591377  0.59636443  0.89674159    -0.78600
C752        C  0.61990954  0.65562965  0.87871436     0.83400
O753        O  0.64148407  0.52463878  0.88410922    -0.78700
C754        C  0.55946850  0.54891505  0.77136557     0.83500
C755        C  0.56217401  0.54749237  0.98063864     0.83900
O756        O  0.55412685  0.53136577  0.94232846    -0.81100
C757        C  0.40812364  0.67134410  0.64408499    -0.05300
C758        C  0.39234330  0.64228692  0.66930280    -0.05300
C759        C  0.40547805  0.62183558  0.67497289    -0.23400
C760        C  0.43448835  0.62964638  0.65477639     0.18800
C761        C  0.45085475  0.65862770  0.62915642     0.16000
C762        C  0.43771638  0.67956041  0.62439294    -0.18500
C763        C  0.47963467  0.66562268  0.60809229    -0.20300
C764        C  0.49125408  0.64347462  0.61070503    -0.12800
C765        C  0.47445092  0.61418855  0.63495096     0.03800
C766        C  0.44665336  0.60817578  0.65833289    -0.25000
H767        H  0.36984094  0.63543539  0.68525223     0.08900
H768        H  0.39265499  0.59959630  0.69462907     0.12500
H769        H  0.45018282  0.70184503  0.60470304     0.12400
H770        H  0.49258736  0.68771849  0.58819230     0.12200
H771        H  0.51243756  0.64857481  0.59187397     0.12700
H772        H  0.43341078  0.58576333  0.67742957     0.14700
C773        C  0.68832781  0.41020018  0.90748998    -0.05300
C774        C  0.70590401  0.43942951  0.92877028    -0.05300
C775        C  0.69380681  0.46063711  0.93310381    -0.23400
C776        C  0.66405884  0.45344753  0.91525817     0.18800
C777        C  0.64571332  0.42405113  0.89430183     0.16000
C778        C  0.65778802  0.40228013  0.89121782    -0.18500
C779        C  0.61618033  0.41762741  0.87552204    -0.20300
C780        C  0.60564317  0.44062586  0.87568998    -0.12800
C781        C  0.62432866  0.47031817  0.89510024     0.03800
C782        C  0.65308612  0.47591892  0.91621274    -0.25000
H783        H  0.72921061  0.44596739  0.94203098     0.08900
H784        H  0.70812628  0.48311315  0.94934236     0.12500
H785        H  0.64401483  0.37985138  0.87452906     0.12400
H786        H  0.60171891  0.39525366  0.85914609     0.12200
H787        H  0.58369148  0.43578220  0.85861687     0.12700
H788        H  0.66786142  0.49866780  0.93144903     0.14700
C789        C  0.42069618  0.77931868  0.61962231    -0.05300
C790        C  0.44904281  0.78815846  0.59606092    -0.05300
C791        C  0.47033004  0.81989270  0.58795495    -0.23400
C792        C  0.46410897  0.84379085  0.60377008     0.18800
C793        C  0.43568688  0.83574570  0.62694020     0.16000
C794        C  0.41383877  0.80340132  0.63430890    -0.18500
C795        C  0.43026797  0.86027892  0.64329787    -0.20300
C796        C  0.45326993  0.89217247  0.63837907    -0.12800
C797        C  0.48198869  0.90012839  0.61660276     0.03800
C798        C  0.48657931  0.87558735  0.59816110    -0.25000
H799        H  0.45494997  0.77039186  0.58386910     0.08900
H800        H  0.49205002  0.82573559  0.57010217     0.12500
H801        H  0.39218437  0.79704024  0.65270694     0.12400
H802        H  0.40865829  0.85474946  0.66119987     0.12200
H803        H  0.44909925  0.91040467  0.65330344     0.12700
H804        H  0.50844225  0.88108490  0.58100180     0.14700
C805        C  0.61888088  0.18229573  0.89329916    -0.05300
C806        C  0.64705627  0.19217317  0.86864028    -0.05300
C807        C  0.66972182  0.22431898  0.86721160    -0.23400
C808        C  0.66442028  0.24717692  0.88991481     0.18800
C809        C  0.63682291  0.23698443  0.91656583     0.16000
C810        C  0.61479391  0.20488955  0.91878823    -0.18500
C811        C  0.63072175  0.25918021  0.93885233    -0.20300
C812        C  0.65098442  0.29141874  0.93321245    -0.12800
C813        C  0.67823639  0.30245985  0.90579829     0.03800
C814        C  0.68534702  0.28000727  0.88520043    -0.25000
H815        H  0.65088215  0.17542239  0.84856425     0.08900
H816        H  0.69077793  0.23147003  0.84673639     0.12500
H817        H  0.59341811  0.19776988  0.93849204     0.12400
H818        H  0.60970291  0.25165710  0.95962126     0.12200
H819        H  0.64508531  0.30784980  0.95027610     0.12700
H820        H  0.70630517  0.28805814  0.86411483     0.14700
C821        C  0.31497297  0.68880075  0.64965061    -0.05300
C822        C  0.30251105  0.70837791  0.66438234    -0.05300
C823        C  0.27020266  0.69678499  0.66877786    -0.23400
C824        C  0.24943870  0.66547762  0.65747302     0.18800
C825        C  0.26143577  0.64546581  0.64229023     0.16000
C826        C  0.29410442  0.65704125  0.63934655    -0.18500
C827        C  0.24046974  0.61455599  0.62897610    -0.20300
C828        C  0.20805860  0.60394873  0.62939451    -0.12800
C829        C  0.19590443  0.62354952  0.64495279     0.03800
C830        C  0.21687598  0.65418523  0.65970758    -0.25000
H831        H  0.31782225  0.73276694  0.67276574     0.08900
H832        H  0.26142453  0.71253452  0.68022869     0.12500
H833        H  0.30320683  0.64163975  0.62752731     0.12400
H834        H  0.24916419  0.59886664  0.61698278     0.12200
H835        H  0.19246610  0.58044559  0.61749375     0.12700
H836        H  0.20781928  0.66981028  0.67077713     0.14700
C837        C  0.90027175  0.46264085  0.87801675    -0.05300
C838        C  0.88842568  0.47832823  0.90592990    -0.05300
C839        C  0.85611481  0.46699650  0.91045204    -0.23400
C840        C  0.83494445  0.43899281  0.88869205     0.18800
C841        C  0.84656109  0.42304303  0.86041911     0.16000
C842        C  0.87904529  0.43539325  0.85428756    -0.18500
C843        C  0.82554291  0.39428537  0.84046293    -0.20300
C844        C  0.79344660  0.38104765  0.84932261    -0.12800
C845        C  0.78148943  0.39667384  0.87718501     0.03800
C846        C  0.80248087  0.42606460  0.89606306    -0.25000
H847        H  0.90421687  0.49911849  0.92486170     0.08900
H848        H  0.84769542  0.47952169  0.93243943     0.12500
H849        H  0.88785879  0.42264134  0.83350440     0.12400
H850        H  0.83400305  0.38163043  0.81882385     0.12200
H851        H  0.77787944  0.35861868  0.83401678     0.12700
H852        H  0.79365867  0.43831813  0.91790673     0.14700
C853        C  0.20187349  0.44538693  0.84632398    -0.05300
C854        C  0.17839754  0.43310477  0.81154121    -0.05300
C855        C  0.15480571  0.44208355  0.80881545    -0.23400
C856        C  0.15449224  0.46382476  0.84048299     0.18800
C857        C  0.17875923  0.47758119  0.87421814     0.16000
C858        C  0.20222710  0.46806653  0.87719143    -0.18500
C859        C  0.17841237  0.49972528  0.90537268    -0.20300
C860        C  0.15320749  0.50657307  0.90506072    -0.12800
C861        C  0.12816038  0.49129460  0.87367958     0.03800
C862        C  0.12945896  0.47080657  0.84045279    -0.25000
H863        H  0.17771557  0.41572914  0.78731818     0.08900
H864        H  0.13642503  0.43149100  0.78261425     0.12500
H865        H  0.22051239  0.47802862  0.90370503     0.12400
H866        H  0.19693611  0.51071091  0.93122410     0.12200
H867        H  0.15228980  0.52209251  0.93131561     0.12700
H868        H  0.10999927  0.45889604  0.81631488     0.14700
C869        C  0.28232542  0.42980931  0.93800458    -0.05300
C870        C  0.28865577  0.45510873  0.96754035    -0.05300
C871        C  0.31611521  0.46813502  0.99460763    -0.23400
C872        C  0.33778316  0.45641998  0.99158820     0.18800
C873        C  0.33045162  0.42955863  0.96469366     0.16000
C874        C  0.30228189  0.41574707  0.93965456    -0.18500
C875        C  0.36490632  0.43538537  0.43847951    -0.20300
C876        C  0.39317466  0.45148637  0.46218560    -0.12800
C877        C  0.39764616  0.47540997  0.49344183     0.03800
C878        C  0.36704133  0.47169808  0.01365092    -0.25000
H879        H  0.27375412  0.46639875  0.96688114     0.08900
H880        H  0.32129244  0.48855944  0.01554813     0.12500
H881        H  0.29743819  0.39587190  0.91756061     0.12400
H882        H  0.36182810  0.41665514  0.41507539     0.12200
H883        H  0.41115679  0.44443033  0.45726465     0.12700
H884        H  0.37247471  0.49225133  0.03446054     0.14700
C885        C  0.27302266  0.41199617  0.77327977    -0.05300
C886        C  0.27572344  0.43088349  0.73237530    -0.05300
C887        C  0.30237430  0.44218592  0.70394804    -0.23400
C888        C  0.32682378  0.43535330  0.71698068     0.18800
C889        C  0.32262720  0.41350261  0.75480900     0.16000
C890        C  0.29495257  0.40060336  0.78099656    -0.18500
C891        C  0.34734992  0.40743110  0.76903087    -0.20300
C892        C  0.37672960  0.42456007  0.74811314    -0.12800
C893        C  0.38162699  0.44752527  0.71203572     0.03800
C894        C  0.35610476  0.45178206  0.69529525    -0.25000
H895        H  0.25907958  0.43974994  0.72526070     0.08900
H896        H  0.30507706  0.45854951  0.67450078     0.12500
H897        H  0.29274881  0.38539681  0.81187417     0.12400
H898        H  0.34441684  0.39065672  0.79798016     0.12200
H899        H  0.39576214  0.42033785  0.76092400     0.12700
H900        H  0.35932549  0.46905900  0.66697372     0.14700
C901        C  0.97463899  0.61323983  0.61625526    -0.05300
C902        C  0.94998409  0.59471380  0.64737865    -0.05300
C903        C  0.92514156  0.60176717  0.65296253    -0.23400
C904        C  0.92451726  0.62734464  0.62730563     0.18800
C905        C  0.94854086  0.64502383  0.59432809     0.16000
C906        C  0.97320674  0.63784115  0.58899519    -0.18500
C907        C  0.94805277  0.67021936  0.56790378    -0.20300
C908        C  0.92417396  0.67819308  0.57433116    -0.12800
C909        C  0.90041020  0.66142691  0.60767393     0.03800
C910        C  0.90064690  0.63586693  0.63419350    -0.25000
H911        H  0.95061880  0.57573373  0.66892609     0.08900
H912        H  0.90683357  0.58770957  0.67813426     0.12500
H913        H  0.99190728  0.65214313  0.56447007     0.12400
H914        H  0.96628822  0.68393831  0.54241863     0.12200
H915        H  0.92455040  0.69792267  0.55349546     0.12700
H916        H  0.88220837  0.62250049  0.65955612     0.14700
C917        C  0.81473071  0.66483634  0.69676607    -0.05300
C918        C  0.80993718  0.68737784  0.72088324    -0.05300
C919        C  0.78122556  0.67911196  0.74234533    -0.23400
C920        C  0.75651863  0.64840390  0.73844903     0.18800
C921        C  0.76160112  0.62535722  0.71557933     0.16000
C922        C  0.79085785  0.63355071  0.69592727    -0.18500
C923        C  0.73691411  0.59486728  0.71056073    -0.20300
C924        C  0.70753540  0.58706525  0.72857998    -0.12800
C925        C  0.70215829  0.60960766  0.75164953     0.03800
C926        C  0.72672465  0.64042700  0.75619952    -0.25000
H927        H  0.82768366  0.71191111  0.72012310     0.08900
H928        H  0.77782624  0.69713228  0.75962349     0.12500
H929        H  0.79400390  0.61644308  0.67555587     0.12400
H930        H  0.74034697  0.57700394  0.69285990     0.12200
H931        H  0.68902966  0.56307256  0.72529907     0.12700
H932        H  0.72294509  0.65775938  0.77487121     0.14700
C933        C  0.72375485  0.62810873  0.95102880    -0.05300
C934        C  0.74371764  0.61527318  0.94026809    -0.05300
C935        C  0.77432856  0.62884406  0.95697307    -0.23400
C936        C  0.78967226  0.65840187  0.47938090     0.18800
C937        C  0.76947514  0.67157761  0.48779833     0.16000
C938        C  0.73840231  0.65615380  0.47195191    -0.18500
C939        C  0.78014831  0.69873614  0.51472610    -0.20300
C940        C  0.80872924  0.70989243  0.53853954    -0.12800
C941        C  0.82699970  0.69421929  0.53515959     0.03800
C942        C  0.81892809  0.67071692  0.50159336    -0.25000
H943        H  0.73533924  0.59401747  0.91998577     0.08900
H944        H  0.78874204  0.61769678  0.94969037     0.12500
H945        H  0.72267743  0.66579583  0.47922413     0.12400
H946        H  0.76528601  0.70955128  0.52084356     0.12200
H947        H  0.81470760  0.72823067  0.56411054     0.12700
H948        H  0.83287202  0.65850731  0.49866866     0.14700
C949        C  0.62459513  0.68857026  0.87981493    -0.05300
C950        C  0.61836188  0.70275017  0.83910541    -0.05300
C951        C  0.62831806  0.73530071  0.83634933    -0.23400
C952        C  0.64504792  0.75437996  0.87403276     0.18800
C953        C  0.65019113  0.74027163  0.91605456     0.16000
C954        C  0.63956531  0.70741208  0.91895245    -0.18500
C955        C  0.66704621  0.75945053  0.95363548    -0.20300
C956        C  0.67943290  0.79235341  0.94910159    -0.12800
C957        C  0.67521763  0.80672596  0.90690832     0.03800
C958        C  0.65750701  0.78740072  0.86975546    -0.25000
H959        H  0.60679250  0.68883682  0.80855647     0.08900
H960        H  0.62393298  0.74570288  0.80402102     0.12500
H961        H  0.64471132  0.69689826  0.95051334     0.12400
H962        H  0.67116655  0.74906092  0.98618981     0.12200
H963        H  0.69275872  0.80657171  0.97842806     0.12700
H964        H  0.65367032  0.79800026  0.83718661     0.14700
C965        C  0.71156803  0.91061393  0.97709373    -0.05300
C966        C  0.69489763  0.89488873  0.01840037    -0.05300
C967        C  0.68104323  0.90880178  0.04552696    -0.23400
C968        C  0.68314016  0.93813145  0.03081578     0.18800
C969        C  0.70318632  0.95576644  0.99312847     0.16000
C970        C  0.71882735  0.94259057  0.96838646    -0.18500
C971        C  0.69189786  0.97808797  0.48089848    -0.20300
C972        C  0.67328882  0.98903083  0.50259455    -0.12800
C973        C  0.65080215  0.96984946  0.53631566     0.03800
C974        C  0.66356047  0.94875270  0.05041836    -0.25000
H975        H  0.68945330  0.87053379  0.02664804     0.08900
H976        H  0.66620201  0.89528839  0.07502632     0.12500
H977        H  0.73252364  0.95541788  0.93748378     0.12400
H978        H  0.70841889  0.99294062  0.45394728     0.12200
H979        H  0.67608396  0.01227529  0.49221352     0.12700
H980        H  0.64770073  0.93465051  0.07860267     0.14700
C981        C  0.62312863  0.94909484  0.74635476    -0.05300
C982        C  0.60278791  0.91777989  0.76092349    -0.05300
C983        C  0.61443806  0.89804853  0.78012151    -0.23400
C984        C  0.64667609  0.90923418  0.78470208     0.18800
C985        C  0.66739737  0.94081755  0.77056359     0.16000
C986        C  0.65546726  0.96066076  0.75176655    -0.18500
C987        C  0.69963959  0.95205309  0.77607305    -0.20300
C988        C  0.71103784  0.93287877  0.79850598    -0.12800
C989        C  0.69044526  0.90195854  0.81445486     0.03800
C990        C  0.65840857  0.88978147  0.80536558    -0.25000
H991        H  0.57778826  0.90834365  0.75649595     0.08900
H992        H  0.59824674  0.87400183  0.79111831     0.12500
H993        H  0.67130252  0.98460568  0.73971077     0.12400
H994        H  0.71588025  0.97614220  0.76537288     0.12200
H995        H  0.73573545  0.94289968  0.80650108     0.12700
H996        H  0.64232172  0.86631544  0.81900681     0.14700
C997        C  0.79572259  0.19987111  0.66660654    -0.05300
C998        C  0.78397482  0.18195339  0.70904859    -0.05300
C999        C  0.75332853  0.15779606  0.71145126    -0.23400
C1000       C  0.73391547  0.15103740  0.67140218     0.18800
C1001       C  0.74501903  0.16967631  0.62910301     0.16000
C1002       C  0.77578752  0.19410676  0.62704927    -0.18500
C1003       C  0.72556724  0.16269809  0.58899341    -0.20300
C1004       C  0.69611401  0.13627551  0.58989142    -0.12800
C1005       C  0.68550636  0.11670186  0.63112738     0.03800
C1006       C  0.70412199  0.12500122  0.67234535    -0.25000
H1007       H  0.79871749  0.18597481  0.74016865     0.08900
H1008       H  0.74511809  0.14379855  0.74420706     0.12500
H1009       H  0.78439963  0.20796371  0.59425573     0.12400
H1010       H  0.73358258  0.17692398  0.55640103     0.12200
H1011       H  0.68207680  0.13057757  0.55779953     0.12700
H1012       H  0.69623270  0.11018604  0.70444635     0.14700
C1013       C  0.97322582  0.37633516  0.80099554    -0.05300
C1014       C  0.98998606  0.36689405  0.77133875    -0.05300
C1015       C  0.97546468  0.33687899  0.75217174    -0.23400
C1016       C  0.94409059  0.31618669  0.76269355     0.18800
C1017       C  0.92779892  0.32496185  0.79508800     0.16000
C1018       C  0.94261307  0.35503973  0.81427918    -0.18500
C1019       C  0.89637343  0.30434166  0.80519001    -0.20300
C1020       C  0.88013634  0.27725217  0.77873021    -0.12800
C1021       C  0.89538239  0.27045977  0.74250827     0.03800
C1022       C  0.92795464  0.28829484  0.73796719    -0.25000
H1023       H  0.01399911  0.38299966  0.76222234     0.14300
H1024       H  0.98831297  0.33035921  0.72771223     0.12500
H1025       H  0.93013519  0.36229170  0.83838767     0.12400
H1026       H  0.88374642  0.31051071  0.83056005     0.12200
H1027       H  0.85508202  0.26378476  0.78298673     0.12700
H1028       H  0.93992352  0.28287506  0.71046664     0.14700
C1029       C  0.97234749  0.38625998  0.99866617    -0.05300
C1030       C  0.98938829  0.37163738  0.01868216    -0.05300
C1031       C  0.97427634  0.33993960  0.03381037    -0.23400
C1032       C  0.93488972  0.32316190  0.54763193     0.18800
C1033       C  0.91766698  0.33661436  0.52391416     0.16000
C1034       C  0.93345282  0.36729578  0.50362040    -0.18500
C1035       C  0.88494685  0.31949391  0.52239116    -0.20300
C1036       C  0.86941594  0.29083663  0.54840225    -0.12800
C1037       C  0.88655306  0.27887225  0.57535296     0.03800
C1038       C  0.91921575  0.29389701  0.57161542    -0.25000
H1039       H  0.01450144  0.38475488  0.02257987     0.08900
H1040       H  0.98787967  0.32940369  0.05006095     0.12500
H1041       H  0.92037728  0.37759838  0.48493534     0.12400
H1042       H  0.87137795  0.32926057  0.50384138     0.12200
H1043       H  0.84422035  0.27972828  0.55101717     0.12700
H1044       H  0.93255574  0.28459407  0.59206798     0.14700
C1045       C  0.29690559  0.89285546  0.87199460    -0.05300
C1046       C  0.30849800  0.90361955  0.91768150    -0.05300
C1047       C  0.33978883  0.92485186  0.92466957    -0.23400
C1048       C  0.36023265  0.93602503  0.88611102     0.18800
C1049       C  0.34916593  0.92515999  0.84004407     0.16000
C1050       C  0.31756506  0.90352566  0.83324107    -0.18500
C1051       C  0.36975527  0.93681979  0.80147888    -0.20300
C1052       C  0.40046889  0.96020118  0.80816655    -0.12800
C1053       C  0.41124314  0.97196126  0.85362992     0.03800
C1054       C  0.39125000  0.95890427  0.89272078    -0.25000
H1055       H  0.29332341  0.89585017  0.94838605     0.08900
H1056       H  0.34786433  0.93295676  0.96017996     0.12500
H1057       H  0.30907510  0.89538297  0.79788551     0.12400
H1058       H  0.36183761  0.92867817  0.76594514     0.12200
H1059       H  0.41552640  0.96982473  0.77745959     0.12700
H1060       H  0.39919995  0.96793134  0.92787448     0.14700
C1061       C  0.14653870  0.70180838  0.51577460    -0.05300
C1062       C  0.17665109  0.70627594  0.50575910    -0.05300
C1063       C  0.20065996  0.73644745  0.49517397    -0.23400
C1064       C  0.15176832  0.76914168  0.96757877     0.18800
C1065       C  0.16885556  0.76517313  0.00628510     0.16000
C1066       C  0.15597840  0.73672210  0.03319966    -0.18500
C1067       C  0.19901722  0.78912232  0.01590066    -0.20300
C1068       C  0.21332779  0.81524159  0.98448750    -0.12800
C1069       C  0.19737552  0.81785548  0.94361482     0.03800
C1070       C  0.16578899  0.79596990  0.93755943    -0.25000
H1071       H  0.18187752  0.68654324  0.50726068     0.08900
H1072       H  0.22366651  0.73930076  0.48736780     0.12500
H1073       H  0.16890028  0.73328306  0.06284033     0.12400
H1074       H  0.21225329  0.78663236  0.04583012     0.12200
H1075       H  0.23762778  0.83187843  0.99013605     0.12700
H1076       H  0.15305222  0.79803622  0.90658804     0.14700
C1077       C  0.12737528  0.71570175  0.71279620    -0.05300
C1078       C  0.10993468  0.72816085  0.73446954    -0.05300
C1079       C  0.12487406  0.75840286  0.75287381    -0.23400
C1080       C  0.15741077  0.77655895  0.74931425     0.18800
C1081       C  0.17497237  0.76469960  0.72553944     0.16000
C1082       C  0.15976842  0.73421813  0.70737900    -0.18500
C1083       C  0.20756020  0.78291884  0.72254019    -0.20300
C1084       C  0.22288901  0.81078347  0.74786069    -0.12800
C1085       C  0.20567149  0.82088207  0.77561302     0.03800
C1086       C  0.17285952  0.80519897  0.77249916    -0.25000
H1087       H  0.08484370  0.71427241  0.73776389     0.08900
H1088       H  0.11113377  0.76724072  0.77094720     0.12500
H1089       H  0.17304365  0.72473947  0.68947424     0.12400
H1090       H  0.22130644  0.77439728  0.70376410     0.12200
H1091       H  0.24814274  0.82242467  0.74971214     0.12700
H1092       H  0.15938491  0.81308354  0.79338708     0.14700
C1093       C  0.44277302  0.28652725  0.57741122    -0.05300
C1094       C  0.44841109  0.30438731  0.53449433    -0.05300
C1095       C  0.46069961  0.33723367  0.53471818    -0.23400
C1096       C  0.46737267  0.35280170  0.57786851     0.18800
C1097       C  0.46244385  0.33522974  0.62120114     0.16000
C1098       C  0.45030877  0.30228154  0.62071074    -0.18500
C1099       C  0.46890869  0.35080768  0.66435554    -0.20300
C1100       C  0.47855037  0.38327251  0.66464714    -0.12800
C1101       C  0.48212430  0.40073448  0.62176938     0.03800
C1102       C  0.47759382  0.38545029  0.57840452    -0.25000
H1103       H  0.44318456  0.29299322  0.50060871     0.08900
H1104       H  0.46443689  0.35038758  0.50116028     0.12500
H1105       H  0.44627733  0.28893969  0.65414929     0.12400
H1106       H  0.46542644  0.33770645  0.69791469     0.12200
H1107       H  0.48184140  0.39439217  0.69854858     0.12700
H1108       H  0.48027621  0.39855125  0.54500498     0.14700
C1109       C  0.48268926  0.14131129  0.75448843    -0.05300
C1110       C  0.50309718  0.17361484  0.74641377    -0.05300
C1111       C  0.49292821  0.19308884  0.72201772    -0.23400
C1112       C  0.46208405  0.18058323  0.70568465     0.18800
C1113       C  0.44125500  0.14812873  0.71400853     0.16000
C1114       C  0.45173673  0.12864723  0.73825064    -0.18500
C1115       C  0.41054290  0.13559800  0.69688848    -0.20300
C1116       C  0.40125574  0.15456026  0.66892626    -0.12800
C1117       C  0.42221989  0.18647227  0.65906584     0.03800
C1118       C  0.45219214  0.19968924  0.67917919    -0.25000
H1119       H  0.52698042  0.18383291  0.75911907     0.08900
H1120       H  0.50920355  0.21785283  0.71572908     0.12500
H1121       H  0.43573971  0.10385515  0.74520042     0.12400
H1122       H  0.39424304  0.11083523  0.70309010     0.12200
H1123       H  0.37824640  0.14393842  0.65284290     0.12700
H1124       H  0.46872729  0.22409200  0.67055413     0.14700
C1125       C  0.41236087  0.18872831  0.49151380    -0.05300
C1126       C  0.43407442  0.20628711  0.45582895    -0.05300
C1127       C  0.44690658  0.19164914  0.42805857    -0.23400
C1128       C  0.43856950  0.15955496  0.43653805     0.18800
C1129       C  0.41382524  0.14105774  0.46789625     0.16000
C1130       C  0.39979919  0.15556904  0.49341820    -0.18500
C1131       C  0.40601500  0.10922533  0.47755593    -0.20300
C1132       C  0.42456842  0.09669088  0.46010069    -0.12800
C1133       C  0.44906605  0.10942860  0.97214572     0.03800
C1134       C  0.44817606  0.13739488  0.95650238    -0.25000
H1135       H  0.44384958  0.23180587  0.45310263     0.08900
H1136       H  0.44452719  0.19106435  0.93687125     0.12500
H1137       H  0.38250087  0.14173293  0.52014205     0.12400
H1138       H  0.38687065  0.09465479  0.50114768     0.12200
H1139       H  0.41909334  0.07254851  0.47011467     0.12700
H1140       H  0.46227577  0.15127796  0.92655991     0.14700
loop_ 
_geom_bond_atom_site_label_1 
_geom_bond_atom_site_label_2 
_geom_bond_distance 
_geom_bond_site_symmetry_2 
_ccdc_geom_bond_type 
C1            N2   1.360       .  A
C1            N6   1.363       .  A
C1          C523   1.479       .  S
N2            C3   1.355       .  A
C3            N4   1.350       .  A
C3          C547   1.459       .  S
N4            C5   1.353       .  A
C5            N6   1.360       .  A
C5          C555   1.483       .  S
C7            N8   1.359       .  A
C7           N12   1.364       .  A
C7          C475   1.474       .  S
N8            C9   1.352       .  A
C9           N10   1.348       .  A
C9          C499   1.453       .  S
N10          C11   1.351       .  A
C11          N12   1.358       .  A
C11         C515   1.475       .  S
C13          N14   1.367       .  A
C13          N18   1.364       .  A
C13         C427   1.480       .  S
N14          C15   1.359       .  A
C15          N16   1.348       .  A
C15         C467   1.474       .  S
N16          C17   1.347       .  A
C17          N18   1.355       .  A
C17         C451   1.479       .  S
C19          N20   1.362       .  A
C19          N24   1.362       .  A
C19         C387   1.478       .  S
N20          C21   1.358       .  A
C21          N22   1.349       .  A
C21         C419   1.465       .  S
N22          C23   1.352       .  A
C23          N24   1.359       .  A
C23         C395   1.480       .  S
C25          N26   1.364       .  A
C25          N30   1.362       .  A
C25         C339   1.473       .  S
N26          C27   1.360       .  A
C27          N28   1.350       .  A
C27         C371   1.473       .  S
N28          C29   1.349       .  A
C29          N30   1.357       .  A
C29         C347   1.460       .  S
C31          N32   1.366       .  A
C31          N36   1.368       .  A
C31         C283   1.476       .  S
N32          C33   1.356       .  A
C33          N34   1.344       .  A
C33         C299   1.477       .  S
N34          C35   1.344       .  A
C35          N36   1.360       .  A
C35         C315   1.476       .  S
O37          C53   1.282       .  A
O37         Zn43   2.062   1_455  S
C38         C267   1.489       .  S
C38          O54   1.280       .  A
C38          O51   1.280       .  A
O39          C52   1.267   1_455  A
O39         Cd46   2.028       .  S
O40          C58   1.276       .  A
O40         Cd49   2.084       .  S
O41          C55   1.287       .  A
O41         Cd45   2.125       .  S
O42          C53   1.286       .  A
O42         Cd45   2.121       .  S
Zn43         O54   2.040       .  S
Zn43         O56   2.036       .  S
Zn43         O48   1.935   1_655  S
O44          C55   1.281       .  A
O44         Cd49   2.100   1_455  S
Cd45         O47   2.097       .  S
Cd45         O48   1.996       .  S
Cd46         O50   2.024       .  S
Cd46         O59   2.034   1_455  S
Cd46         O48   1.973       .  S
O47          C57   1.276       .  A
O48         Cd49   1.991   1_455  S
Cd49         O51   2.097       .  S
O50          C57   1.268       .  A
C52         C459   1.471       .  S
C52          O56   1.274       .  A
C53         C631   1.494       .  S
C55          C78   1.493       .  S
C57         C291   1.467       .  S
C58         C443   1.458       .  S
C58          O59   1.267       .  A
O60          C76   1.280       .  A
O60         Zn66   2.056       .  S
C61         C623   1.494   1_554  S
C61          O77   1.282       .  A
C61          O74   1.286       .  A
O62          C75   1.264       .  A
O62         Cd69   2.022       .  S
O63          C81   1.277       .  A
O63         Cd72   2.113       .  S
O64          C78   1.282       .  A
O64         Cd68   2.102       .  S
O65          C76   1.278       .  A
O65         Cd68   2.086       .  S
Zn66         O77   2.059       .  S
Zn66         O79   2.032       .  S
Zn66         O71   1.947       .  S
O67          C78   1.287       .  A
O67         Cd72   2.126       .  S
Cd68         O70   2.091       .  S
Cd68         O71   1.998       .  S
Cd69         O73   2.030       .  S
Cd69         O82   2.013       .  S
Cd69         O71   1.980       .  S
O70          C80   1.274       .  A
O71         Cd72   2.011       .  S
Cd72         O74   2.126       .  S
O73          C80   1.268       .  A
C75         C491   1.454       .  S
C75          O79   1.274       .  A
C76         C259   1.489       .  S
C80         C507   1.470       .  S
C81         C331   1.473   1_455  S
C81          O82   1.266       .  A
O83          C99   1.266       .  A
O83         Zn89   1.976       .  S
C84         C563   1.479       .  S
C84         O100   1.270       .  A
C84          O97   1.277       .  A
O85          C98   1.285       .  A
O85         Cd92   2.153       .  S
O86         C104   1.278       .  A
O86         Cd95   2.078       .  S
O87         C101   1.272   1_545  A
O87         Cd91   2.044       .  S
O88          C99   1.272       .  A
O88         Cd91   2.076       .  S
Zn89        O100   1.984       .  S
Zn89        O102   1.955       .  S
Zn89         O94   1.890       .  S
O90         C101   1.275   1_545  A
O90         Cd95   2.059       .  S
Cd91         O93   2.059       .  S
Cd91         O94   1.978       .  S
Cd92         O96   2.177       .  S
Cd92        O105   2.158       .  S
Cd92         O94   1.983       .  S
O93         C103   1.275       .  A
O94         Cd95   1.986       .  S
Cd95         O97   2.085       .  S
O96         C103   1.295       .  A
C98         C235   1.490       .  S
C98         O102   1.269       .  A
C99         C539   1.468       .  S
C101        C483   1.473       .  S
C103        C127   1.496       .  S
C104        C696   1.494       .  S
C104        O105   1.294       .  A
O106        C122   1.269       .  A
O106       Zn112   1.975       .  S
C107        C411   1.477       .  S
C107        O123   1.268       .  A
C107        O120   1.277       .  A
O108        C121   1.285       .  A
O108       Cd115   2.149   1_565  S
O109        C127   1.279       .  A
O109       Cd118   2.090       .  S
O110        C124   1.273       .  A
O110       Cd114   2.051       .  S
O111        C122   1.274   1_545  A
O111       Cd114   2.077       .  S
Zn112       O123   1.967       .  S
Zn112       O125   1.979       .  S
Zn112       O117   1.893   1_565  S
O113        C124   1.277       .  A
O113       Cd118   2.077       .  S
Cd114       O116   2.062       .  S
Cd114       O117   1.986       .  S
Cd115       O119   2.154       .  S
Cd115       O128   2.155       .  S
Cd115       O117   1.983       .  S
O116        C126   1.276       .  A
O117       Cd118   1.995       .  S
Cd118       O120   2.100   1_545  S
O119        C126   1.291       .  A
C121        C227   1.498       .  S
C121        O125   1.271       .  A
C122        C403   1.477       .  S
C124        C435   1.479       .  S
C126        C674   1.490   1_554  S
C127        O128   1.294       .  A
C129        N130   1.361       .  A
C129        N134   1.357       .  A
C129        C203   1.489       .  S
N130        C131   1.361       .  A
C131        N132   1.366       .  A
C131        C275   1.489       .  S
N132        C133   1.365       .  A
C133        N134   1.364       .  A
C133        C243   1.493       .  S
C135        N136   1.357       .  A
C135        N140   1.362       .  A
C135        C187   1.492       .  S
N136        C137   1.361       .  A
C137        N138   1.366       .  A
C137        C219   1.493       .  S
N138        C139   1.368       .  A
C139        N140   1.361       .  A
C139        C251   1.494       .  S
O141        C157   1.266       .  A
O141       Zn147   1.968       .  S
C142        C323   1.482       .  S
C142        O158   1.265       .  A
C142        O155   1.276       .  A
O143        C156   1.285       .  A
O143       Cd150   2.162       .  S
O144        C162   1.279       .  A
O144       Cd153   2.087       .  S
O145        C159   1.275       .  A
O145       Cd149   2.059       .  S
O146        C157   1.274       .  A
O146       Cd149   2.085       .  S
Zn147       O158   1.955       .  S
Zn147       O160   1.931       .  S
Zn147       O152   1.904       .  S
O148        C159   1.275       .  A
O148       Cd153   2.064       .  S
Cd149       O151   2.081       .  S
Cd149       O152   1.996       .  S
Cd150       O154   2.176       .  S
Cd150       O163   2.161       .  S
Cd150       O152   2.014       .  S
O151        C161   1.278       .  A
O152       Cd153   2.015       .  S
Cd153       O155   2.103       .  S
O154        C161   1.294       .  A
C156        C195   1.494       .  S
C156        O160   1.265       .  A
C157        C307   1.479       .  S
C159        C531   1.477       .  S
C161        C755   1.503   1_554  S
C162        C184   1.498       .  S
C162        O163   1.293       .  A
O164        C180   1.265       .  A
O164       Zn170   1.973       .  S
C165        C363   1.473       .  S
C165        O181   1.267       .  A
C165        O178   1.278       .  A
O166        C179   1.285       .  A
O166       Cd173   2.167       .  S
O167        C185   1.280       .  A
O167       Cd176   2.099       .  S
O168        C182   1.276       .  A
O168       Cd172   2.068       .  S
O169        C180   1.273       .  A
O169       Cd172   2.091       .  S
Zn170       O181   1.959       .  S
Zn170       O183   1.933       .  S
Zn170       O175   1.891       .  S
O171        C182   1.275       .  A
O171       Cd176   2.063       .  S
Cd172       O174   2.083       .  S
Cd172       O175   1.993       .  S
Cd173       O177   2.168       .  S
Cd173       O186   2.153       .  S
Cd173       O175   1.991       .  S
O174        C184   1.279       .  A
O175       Cd176   1.998       .  S
Cd176       O178   2.093       .  S
O177        C184   1.294       .  A
C179        C211   1.493       .  S
C179        O183   1.264       .  A
C180        C355   1.471       .  S
C182        C379   1.479       .  S
C185        C731   1.498       .  S
C185        O186   1.294       .  A
C187        C188   1.405       .  A
C187        C192   1.417       .  A
C188        C189   1.394       .  A
C188        H197   1.083       .  S
C189        C190   1.402       .  A
C189        H198   1.084       .  S
C190        C196   1.399       .  A
C190        C191   1.409       .  A
C191        C193   1.411       .  A
C191        C192   1.413       .  A
C192        H199   1.083       .  S
C193        C194   1.410       .  A
C193        H200   1.083       .  S
C194        C195   1.405       .  A
C194        H201   1.083       .  S
C195        C196   1.413       .  A
C196        H202   1.084       .  S
C203        C204   1.404       .  A
C203        C208   1.416       .  A
C204        C205   1.394       .  A
C204        H213   1.083       .  S
C205        C206   1.402       .  A
C205        H214   1.084       .  S
C206        C212   1.400       .  A
C206        C207   1.411       .  A
C207        C209   1.411       .  A
C207        C208   1.416       .  A
C208        H215   1.084       .  S
C209        C210   1.411       .  A
C209        H216   1.083       .  S
C210        C211   1.405       .  A
C210        H217   1.083       .  S
C211        C212   1.411       .  A
C212        H218   1.085       .  S
C219        C220   1.407       .  A
C219        C224   1.413       .  A
C220        C221   1.395       .  A
C220        H229   1.083       .  S
C221        C222   1.401       .  A
C221        H230   1.084       .  S
C222        C228   1.405       .  A
C222        C223   1.412       .  A
C223        C225   1.408       .  A
C223        C224   1.417       .  A
C224        H231   1.084       .  S
C225        C226   1.409       .  A
C225        H232   1.083       .  S
C226        C227   1.407       .  A
C226        H233   1.083       .  S
C227        C228   1.412       .  A
C228        H234   1.084       .  S
C235        C236   1.406       .  A
C235        C240   1.408       .  A
C236        C237   1.410       .  A
C236        H245   1.083       .  S
C237        C238   1.410       .  A
C237        H246   1.083       .  S
C238        C244   1.417       .  A
C238        C239   1.412       .  A
C239        C241   1.399       .  A
C239        C240   1.400       .  A
C240        H247   1.085       .  S
C241        C242   1.392       .  A
C241        H248   1.084       .  S
C242        C243   1.407       .  A
C242        H249   1.083       .  S
C243        C244   1.415       .  A
C244        H250   1.084       .  S
C251        C252   1.405       .  A
C251        C256   1.414       .  A
C252        C253   1.401       .  A
C252        H261   1.083       .  S
C253        C254   1.404       .  A
C253        H262   1.083       .  S
C254        C260   1.409       .  A
C254        C255   1.413       .  A
C255        C257   1.407       .  A
C255        C256   1.413       .  A
C256        H263   1.084       .  S
C257        C258   1.405       .  A
C257        H264   1.083       .  S
C258        C259   1.406       .  A
C258        H265   1.083       .  S
C259        C260   1.409       .  A
C260        H266   1.084       .  S
C267        C268   1.405       .  A
C267        C272   1.411       .  A
C268        C269   1.401       .  A
C268        H277   1.083       .  S
C269        C270   1.404       .  A
C269        H278   1.084       .  S
C270        C276   1.409       .  A
C270        C271   1.413       .  A
C271        C273   1.405       .  A
C271        C272   1.411       .  A
C272        H279   1.084       .  S
C273        C274   1.403       .  A
C273        H280   1.084       .  S
C274        C275   1.405       .  A
C274        H281   1.083       .  S
C275        C276   1.410       .  A
C276        H282   1.084       .  S
C283        C284   1.404       .  A
C283        C288   1.408       .  A
C284        C285   1.395       .  A
C284        H293   1.083       .  S
C285        C286   1.401       .  A
C285        H294   1.083       .  S
C286        C292   1.398       .  A
C286        C287   1.413       .  A
C287        C289   1.405       .  A
C287        C288   1.403       .  A
C288        H295   1.084       .  S
C289        C290   1.400       .  A
C289        H296   1.083       .  S
C290        C291   1.401       .  A
C290        H297   1.083       .  S
C291        C292   1.403       .  A
C292        H298   1.085       .  S
C299        C300   1.404       .  A
C299        C304   1.408       .  A
C300        C301   1.402       .  A
C300        H309   1.083       .  S
C301        C302   1.407       .  A
C301        H310   1.083       .  S
C302        C308   1.402       .  A
C302        C303   1.410       .  A
C303        C304   1.390       .  A
C303        C875   1.400       .  A
C304        H311   1.085       .  S
C305        C306   1.396       .  A
C305        C873   1.403       .  A
C305        H312   1.084       .  S
C306        C307   1.404   1_556  A
C306        H313   1.083       .  S
C307        C878   1.411       .  A
C308        C877   1.411       .  A
C308        H314   1.084       .  S
C315        C316   1.403       .  A
C315        C320   1.412       .  A
C316        C317   1.399       .  A
C316        H325   1.083       .  S
C317        C318   1.406       .  A
C317        H326   1.083       .  S
C318        C324   1.399       .  A
C318        C319   1.409       .  A
C319        C321   1.405       .  A
C319        C320   1.399       .  A
C320        H327   1.085       .  S
C321        C322   1.400       .  A
C321        H328   1.083       .  S
C322        C323   1.404       .  A
C322        H329   1.083       .  S
C323        C324   1.413       .  A
C324        H330   1.084       .  S
C331        C332   1.402       .  A
C331        C336   1.405       .  A
C332        C333   1.403       .  A
C332        H341   1.083       .  S
C333        C334   1.407       .  A
C333        H342   1.083       .  S
C334        C340   1.405       .  A
C334        C335   1.413       .  A
C335        C337   1.402       .  A
C335        C336   1.398       .  A
C336        H343   1.085       .  S
C337        C338   1.395       .  A
C337        H344   1.084       .  S
C338        C339   1.402       .  A
C338        H345   1.083       .  S
C339        C340   1.408       .  A
C340        H346   1.084       .  S
C347        C348   1.402       .  A
C347        C352   1.401       .  A
C348        C349   1.398       .  A
C348        H357   1.083       .  S
C349        C350   1.403       .  A
C349        H358   1.083       .  S
C350        C356   1.403       .  A
C350        C351   1.415       .  A
C351        C353   1.400       .  A
C351        C352   1.399       .  A
C352        H359   1.085       .  S
C353        C354   1.394       .  A
C353        H360   1.083       .  S
C354        C355   1.404       .  A
C354        H361   1.083       .  S
C355        C356   1.406       .  A
C356        H362   1.084       .  S
C363        C364   1.407       .  A
C363        C938   1.403       .  A
C364        C365   1.392       .  A
C364        H373   1.084       .  S
C365        C936   1.398       .  A
C365        H374   1.083       .  S
C366        C372   1.402   1_556  A
C366        C367   1.416       .  A
C366        C935   1.398       .  A
C367        C369   1.401   1_556  A
C367        C368   1.407       .  A
C368        C933   1.403       .  A
C368        H375   1.084       .  S
C369        C370   1.397       .  A
C369        H376   1.083       .  S
C370        C371   1.407       .  A
C370        H377   1.084       .  S
C371        C372   1.402       .  A
C372        H378   1.084       .  S
C379        C380   1.406       .  A
C379        C384   1.407       .  A
C380        C381   1.398       .  A
C380        H389   1.083       .  S
C381        C382   1.403       .  A
C381        H390   1.083       .  S
C382        C388   1.403       .  A
C382        C383   1.413       .  A
C383        C385   1.401       .  A
C383        C384   1.400       .  A
C384        H391   1.084       .  S
C385        C386   1.395       .  A
C385        H392   1.084       .  S
C386        C387   1.405       .  A
C386        H393   1.083       .  S
C387        C388   1.407       .  A
C388        H394   1.084       .  S
C395        C396   1.406       .  A
C395        C400   1.408       .  A
C396        C397   1.399       .  A
C396        H405   1.083       .  S
C397        C398   1.404       .  A
C397        H406   1.083       .  S
C398        C404   1.401       .  A
C398        C399   1.411       .  A
C399        C400   1.397       .  A
C399        C971   1.402       .  A
C400        H407   1.084       .  S
C401        C402   1.398       .  A
C401        C969   1.404       .  A
C401        H408   1.083       .  S
C402        C403   1.404   1_556  A
C402        H409   1.083   1_565  S
C403        C974   1.409       .  A
C404        C973   1.409       .  A
C404        H410   1.084       .  S
C411        C412   1.407       .  A
C411        C416   1.406       .  A
C412        C413   1.391       .  A
C412        H421   1.083       .  S
C413        C414   1.397       .  A
C413        H422   1.084       .  S
C414        C420   1.399       .  A
C414        C415   1.415       .  A
C415        C417   1.403       .  A
C415        C416   1.406       .  A
C416        H423   1.084       .  S
C417        C418   1.399       .  A
C417        H424   1.083       .  S
C418        C419   1.405       .  A
C418        H425   1.083       .  S
C419        C420   1.400       .  A
C420        H426   1.085       .  S
C427        C428   1.407       .  A
C427        C432   1.407       .  A
C428        C429   1.393       .  A
C428        H437   1.083       .  S
C429        C430   1.399       .  A
C429        H438   1.084       .  S
C430        C436   1.400       .  A
C430        C431   1.414       .  A
C431        C433   1.401       .  A
C431        C432   1.403       .  A
C432        H439   1.084       .  S
C433        C434   1.397       .  A
C433        H440   1.084       .  S
C434        C435   1.408       .  A
C434        H441   1.083       .  S
C435        C436   1.404       .  A
C436        H442   1.084       .  S
C443        C444   1.398       .  A
C443        C448   1.404       .  A
C444        C445   1.392       .  A
C444        H453   1.084   1_655  S
C445        C446   1.402       .  A
C445        H454   1.084       .  S
C446        C452   1.393       .  A
C446        C447   1.413       .  A
C447        C449   1.405       .  A
C447        C448   1.403       .  A
C448        H455   1.084       .  S
C449        C450   1.401       .  A
C449        H456   1.083       .  S
C450        C451   1.406       .  A
C450        H457   1.083       .  S
C451        C452   1.407       .  A
C452        H458   1.085       .  S
C459        C460   1.404       .  A
C459       C1034   1.407       .  A
C460        C461   1.392       .  A
C460        H469   1.083   1_655  S
C461       C1032   1.400       .  A
C461        H470   1.084       .  S
C462        C468   1.396       .  A
C462        C463   1.412       .  A
C462       C1031   1.401       .  A
C463        C465   1.405       .  A
C463        C464   1.404   1_554  A
C464       C1029   1.408       .  A
C464        H471   1.084       .  S
C465        C466   1.401       .  A
C465        H472   1.083   1_554  S
C466        C467   1.404       .  A
C466        H473   1.083       .  S
C467        C468   1.406       .  A
C468        H474   1.085       .  S
C475        C476   1.407       .  A
C475        C480   1.403       .  A
C476        C477   1.392       .  A
C476        H485   1.083       .  S
C477        C478   1.399       .  A
C477        H486   1.084       .  S
C478        C484   1.398       .  A
C478        C479   1.414       .  A
C479        C481   1.399       .  A
C479        C480   1.398       .  A
C480        H487   1.084       .  S
C481        C482   1.393       .  A
C481        H488   1.084       .  S
C482        C483   1.407       .  A
C482        H489   1.083       .  S
C483        C484   1.404       .  A
C484        H490   1.084       .  S
C491        C492   1.398   1_554  A
C491       C1066   1.401       .  A
C492        C493   1.394       .  A
C492        H501   1.083       .  S
C493       C1064   1.402       .  A
C493        H502   1.084       .  S
C494        C500   1.394       .  A
C494        C495   1.412       .  A
C494       C1063   1.400       .  A
C495        C497   1.403       .  A
C495        C496   1.397       .  A
C496       C1061   1.407       .  A
C496        H503   1.084       .  S
C497        C498   1.397       .  A
C497        H504   1.083       .  S
C498        C499   1.401       .  A
C498        H505   1.083       .  S
C499        C500   1.401       .  A
C500        H506   1.086       .  S
C507        C508   1.403       .  A
C507        C512   1.407       .  A
C508        C509   1.392       .  A
C508        H517   1.084       .  S
C509        C510   1.400       .  A
C509        H518   1.083       .  S
C510        C516   1.396       .  A
C510        C511   1.413       .  A
C511        C513   1.405       .  A
C511        C512   1.406       .  A
C512        H519   1.084       .  S
C513        C514   1.401       .  A
C513        H520   1.083       .  S
C514        C515   1.406       .  A
C514        H521   1.083       .  S
C515        C516   1.405       .  A
C516        H522   1.084       .  S
C523        C524   1.405       .  A
C523        C528   1.408       .  A
C524        C525   1.396       .  A
C524        H533   1.083       .  S
C525        C526   1.401       .  A
C525        H534   1.083       .  S
C526        C532   1.400       .  A
C526        C527   1.412       .  A
C527        C529   1.403       .  A
C527        C528   1.401       .  A
C528        H535   1.084       .  S
C529        C530   1.397       .  A
C529        H536   1.083       .  S
C530        C531   1.406       .  A
C530        H537   1.083       .  S
C531        C532   1.406       .  A
C532        H538   1.084       .  S
C539        C540   1.403       .  A
C539        C544   1.406       .  A
C540        C541   1.392       .  A
C540        H549   1.083       .  S
C541        C542   1.400       .  A
C541        H550   1.083       .  S
C542        C548   1.396       .  A
C542        C543   1.414       .  A
C543        C545   1.404       .  A
C543        C544   1.402       .  A
C544        H551   1.084       .  S
C545        C546   1.398       .  A
C545        H552   1.083       .  S
C546        C547   1.403       .  A
C546        H553   1.083       .  S
C547        C548   1.402       .  A
C548        H554   1.085       .  S
C555        C556   1.406   1_554  A
C555        C560   1.410       .  A
C556        C557   1.399       .  A
C556        H565   1.083       .  S
C557        C558   1.404       .  A
C557       H1136   1.083       .  S
C558        C559   1.411   1_556  A
C558       C1134   1.401       .  A
C559        C561   1.403       .  A
C559        C560   1.399       .  A
C560        H567   1.084       .  S
C561        C562   1.397       .  A
C561        H568   1.083       .  S
C562       C1133   1.404   1_554  A
C562        H569   1.083       .  S
C563        C564   1.410       .  A
C563       C1132   1.404       .  A
C564       C1128   1.401       .  A
C564        H570   1.084       .  S
H566       C1127   1.083       .  S
C571        N572   1.360       .  A
C571        N576   1.363       .  A
C571       C1093   1.481       .  S
N572        C573   1.355       .  A
C573        N574   1.349       .  A
C573       C1117   1.465       .  S
N574        C575   1.354       .  A
C575        N576   1.360       .  A
C575       C1125   1.477       .  S
C577        N578   1.360       .  A
C577        N582   1.368       .  A
C577       C1045   1.482       .  S
N578        C579   1.351       .  A
C579        N580   1.347       .  A
C579       C1069   1.474       .  S
N580        C581   1.350       .  A
C581        N582   1.364       .  A
C581       C1085   1.476       .  S
C583        N584   1.365       .  A
C583        N588   1.363       .  A
C583        C997   1.477       .  S
N584        C585   1.358       .  A
C585        N586   1.349       .  A
C585       C1037   1.471       .  S
N586        C587   1.348       .  A
C587        N588   1.356       .  A
C587       C1021   1.471       .  S
C589        N590   1.363       .  A
C589        N594   1.364       .  A
C589        C957   1.485       .  S
N590        C591   1.357       .  A
C591        N592   1.347       .  A
C591        C989   1.465       .  S
N592        C593   1.351       .  A
C593        N594   1.361       .  A
C593        C965   1.481       .  S
C595        N596   1.363       .  A
C595        N600   1.367       .  A
C595        C909   1.482       .  S
N596        C597   1.356       .  A
C597        N598   1.348       .  A
C597        C941   1.470       .  S
N598        C599   1.348       .  A
C599        N600   1.363       .  A
C599        C917   1.464       .  S
C601        N602   1.365       .  A
C601        N606   1.366       .  A
C601        C853   1.479       .  S
N602        C603   1.360       .  A
C603        N604   1.347       .  A
C603        C869   1.477       .  S
N604        C605   1.347       .  A
C605        N606   1.359       .  A
C605        C885   1.479       .  S
O607        C623   1.283       .  A
O607       Zn613   2.063   1_455  S
C608        C837   1.490       .  S
C608        O624   1.280       .  A
C608        O621   1.278       .  A
O609        C622   1.268   1_455  A
O609       Cd616   2.031       .  S
O610        C628   1.275       .  A
O610       Cd619   2.081       .  S
O611        C625   1.286       .  A
O611       Cd615   2.115       .  S
O612        C623   1.286       .  A
O612       Cd615   2.122       .  S
Zn613       O624   2.053       .  S
Zn613       O626   2.036       .  S
Zn613       O618   1.936   1_655  S
O614        C625   1.282       .  A
O614       Cd619   2.100   1_455  S
Cd615       O617   2.110       .  S
Cd615       O618   1.998       .  S
Cd616       O620   2.018       .  S
Cd616       O629   2.026       .  S
Cd616       O618   1.979       .  S
O617        C627   1.276       .  A
O618       Cd619   1.994   1_455  S
Cd619       O621   2.095       .  S
O620        C627   1.267       .  A
C622       C1029   1.473       .  S
C622        O626   1.274       .  A
C625        C648   1.488       .  S
C627        C861   1.469       .  S
C628       C1013   1.456       .  S
C628        O629   1.266   1_655  A
O630        C646   1.280       .  A
O630       Zn636   2.064       .  S
C631        O647   1.281       .  A
C631        O644   1.287       .  A
O632        C645   1.268       .  A
O632       Cd639   2.028       .  S
O633        C651   1.279       .  A
O633       Cd642   2.116       .  S
O634        C648   1.282       .  A
O634       Cd638   2.093       .  S
O635        C646   1.276       .  A
O635       Cd638   2.087       .  S
Zn636       O647   2.050       .  S
Zn636       O649   2.003       .  S
Zn636       O641   1.942       .  S
O637        C648   1.287       .  A
O637       Cd642   2.123       .  S
Cd638       O640   2.076       .  S
Cd638       O641   1.989       .  S
Cd639       O643   2.046       .  S
Cd639       O652   2.033       .  S
Cd639       O641   1.989       .  S
O640        C650   1.274       .  A
O641       Cd642   2.002       .  S
Cd642       O644   2.135       .  S
O643        C650   1.269       .  A
C645       C1061   1.470       .  S
C645        O649   1.271       .  A
C646        C829   1.492       .  S
C650       C1077   1.463       .  S
C651        C901   1.483   1_455  S
C651        O652   1.270       .  A
O653        C669   1.268       .  A
O653       Zn659   1.979       .  S
C654       C1133   1.479       .  S
C654        O670   1.270       .  A
C654        O667   1.275       .  A
O655        C668   1.284       .  A
O655       Cd662   2.149       .  S
O656        C674   1.277       .  A
O656       Cd665   2.081       .  S
O657        C671   1.272       .  A
O657       Cd661   2.048       .  S
O658        C669   1.274       .  A
O658       Cd661   2.071       .  S
Zn659       O670   1.988       .  S
Zn659       O672   1.975       .  S
Zn659       O664   1.911       .  S
O660        C671   1.277       .  A
O660       Cd665   2.076       .  S
Cd661       O663   2.062       .  S
Cd661       O664   1.993       .  S
Cd662       O666   2.153       .  S
Cd662       O675   2.140       .  S
Cd662       O664   1.999       .  S
O663        C673   1.273       .  A
O664       Cd665   2.005       .  S
Cd665       O667   2.079       .  S
O666        C673   1.291       .  A
C668        C805   1.495       .  S
C668        O672   1.271       .  A
C669       C1109   1.468       .  S
C671       C1053   1.476   1_545  S
C673        C697   1.490       .  S
C674        O675   1.289       .  A
O676        C692   1.270       .  A
O676       Zn682   1.987       .  S
C677        C981   1.470       .  S
C677        O693   1.268       .  A
C677        O690   1.274       .  A
O678        C691   1.285       .  A
O678       Cd685   2.156   1_565  S
O679        C697   1.275       .  A
O679       Cd688   2.060       .  S
O680        C694   1.274       .  A
O680       Cd684   2.061       .  S
O681        C692   1.274   1_545  A
O681       Cd684   2.068       .  S
Zn682       O693   1.977       .  S
Zn682       O695   1.965       .  S
Zn682       O687   1.903   1_565  S
O683        C694   1.274       .  A
O683       Cd688   2.061       .  S
Cd684       O686   2.056       .  S
Cd684       O687   1.989       .  S
Cd685       O689   2.171       .  S
Cd685       O698   2.162       .  S
Cd685       O687   1.999       .  S
O686        C696   1.274       .  A
O687       Cd688   1.992       .  S
Cd688       O690   2.082   1_545  S
O689        C696   1.294       .  A
C691        C797   1.496       .  S
C691        O695   1.270       .  A
C692        C973   1.477       .  S
C694       C1005   1.477       .  S
C697        O698   1.294       .  A
C699        N700   1.362       .  A
C699        N704   1.358       .  A
C699        C773   1.491       .  S
N700        C701   1.362       .  A
C701        N702   1.367       .  A
C701        C845   1.493       .  S
N702        C703   1.365       .  A
C703        N704   1.365       .  A
C703        C813   1.495       .  S
C705        N706   1.357       .  A
C705        N710   1.363       .  A
C705        C757   1.492       .  S
N706        C707   1.362       .  A
C707        N708   1.365       .  A
C707        C789   1.494       .  S
N708        C709   1.368       .  A
C709        N710   1.363       .  A
C709        C821   1.498       .  S
O711        C727   1.267       .  A
O711       Zn717   1.978       .  S
C712        C893   1.481       .  S
C712        O728   1.267       .  A
C712        O725   1.276       .  A
O713        C726   1.286       .  A
O713       Cd720   2.160       .  S
O714        C732   1.278       .  A
O714       Cd723   2.087       .  S
O715        C729   1.274       .  A
O715       Cd719   2.052       .  S
O716        C727   1.272       .  A
O716       Cd719   2.060       .  S
Zn717       O728   1.970       .  S
Zn717       O730   1.941       .  S
Zn717       O722   1.912       .  S
O718        C729   1.276       .  A
O718       Cd723   2.071       .  S
Cd719       O721   2.050       .  S
Cd719       O722   1.985       .  S
Cd720       O724   2.189       .  S
Cd720       O733   2.167       .  S
Cd720       O722   2.014       .  S
O721        C731   1.272       .  A
O722       Cd723   2.012       .  S
Cd723       O725   2.092       .  S
O724        C731   1.295       .  A
C726        C765   1.490       .  S
C726        O730   1.267       .  A
C727        C877   1.472       .  S
C729       C1101   1.479       .  S
C732        C754   1.500       .  S
C732        O733   1.294       .  A
O734        C750   1.265       .  A
O734       Zn740   1.973       .  S
C735        C933   1.475       .  S
C735        O751   1.267       .  A
C735        O748   1.280       .  A
O736        C749   1.285       .  A
O736       Cd743   2.168       .  S
O737        C755   1.282       .  A
O737       Cd746   2.106       .  S
O738        C752   1.277       .  A
O738       Cd742   2.072       .  S
O739        C750   1.274       .  A
O739       Cd742   2.099       .  S
Zn740       O751   1.957       .  S
Zn740       O753   1.942       .  S
Zn740       O745   1.887       .  S
O741        C752   1.277       .  A
O741       Cd746   2.079       .  S
Cd742       O744   2.084       .  S
Cd742       O745   1.993       .  S
Cd743       O747   2.173       .  S
Cd743       O756   2.163       .  S
Cd743       O745   1.997       .  S
O744        C754   1.279       .  A
O745       Cd746   2.000       .  S
Cd746       O748   2.106       .  S
O747        C754   1.295       .  A
C749        C781   1.494       .  S
C749        O753   1.264       .  A
C750        C925   1.473       .  S
C752        C949   1.483       .  S
C755        O756   1.295       .  A
C757        C758   1.404       .  A
C757        C762   1.417       .  A
C758        C759   1.395       .  A
C758        H767   1.083       .  S
C759        C760   1.402       .  A
C759        H768   1.084       .  S
C760        C766   1.400       .  A
C760        C761   1.410       .  A
C761        C763   1.411       .  A
C761        C762   1.415       .  A
C762        H769   1.084       .  S
C763        C764   1.410       .  A
C763        H770   1.083       .  S
C764        C765   1.405       .  A
C764        H771   1.083       .  S
C765        C766   1.411       .  A
C766        H772   1.085       .  S
C773        C774   1.404       .  A
C773        C778   1.415       .  A
C774        C775   1.396       .  A
C774        H783   1.083       .  S
C775        C776   1.402       .  A
C775        H784   1.084       .  S
C776        C782   1.403       .  A
C776        C777   1.411       .  A
C777        C779   1.411       .  A
C777        C778   1.417       .  A
C778        H785   1.084       .  S
C779        C780   1.411       .  A
C779        H786   1.083       .  S
C780        C781   1.405       .  A
C780        H787   1.083       .  S
C781        C782   1.412       .  A
C782        H788   1.085       .  S
C789        C790   1.407       .  A
C789        C794   1.416       .  A
C790        C791   1.393       .  A
C790        H799   1.083       .  S
C791        C792   1.400       .  A
C791        H800   1.084       .  S
C792        C798   1.402       .  A
C792        C793   1.412       .  A
C793        C795   1.410       .  A
C793        C794   1.419       .  A
C794        H801   1.083       .  S
C795        C796   1.411       .  A
C795        H802   1.083       .  S
C796        C797   1.407       .  A
C796        H803   1.083       .  S
C797        C798   1.410       .  A
C798        H804   1.084       .  S
C805        C806   1.407       .  A
C805        C810   1.409       .  A
C806        C807   1.412       .  A
C806        H815   1.083       .  S
C807        C808   1.411       .  A
C807        H816   1.083       .  S
C808        C814   1.419       .  A
C808        C809   1.412       .  A
C809        C811   1.399       .  A
C809        C810   1.402       .  A
C810        H817   1.085       .  S
C811        C812   1.393       .  A
C811        H818   1.084       .  S
C812        C813   1.406       .  A
C812        H819   1.083       .  S
C813        C814   1.417       .  A
C814        H820   1.084       .  S
C821        C822   1.406       .  A
C821        C826   1.415       .  A
C822        C823   1.402       .  A
C822        H831   1.083       .  S
C823        C824   1.405       .  A
C823        H832   1.083       .  S
C824        C830   1.411       .  A
C824        C825   1.412       .  A
C825        C827   1.408       .  A
C825        C826   1.415       .  A
C826        H833   1.083       .  S
C827        C828   1.407       .  A
C827        H834   1.083       .  S
C828        C829   1.404       .  A
C828        H835   1.083       .  S
C829        C830   1.412       .  A
C830        H836   1.084       .  S
C837        C838   1.405       .  A
C837        C842   1.411       .  A
C838        C839   1.404       .  A
C838        H847   1.083       .  S
C839        C840   1.406       .  A
C839        H848   1.084       .  S
C840        C846   1.412       .  A
C840        C841   1.413       .  A
C841        C843   1.405       .  A
C841        C842   1.411       .  A
C842        H849   1.085       .  S
C843        C844   1.402       .  A
C843        H850   1.084       .  S
C844        C845   1.406       .  A
C844        H851   1.083       .  S
C845        C846   1.412       .  A
C846        H852   1.084       .  S
C853        C854   1.404       .  A
C853        C858   1.409       .  A
C854        C855   1.394       .  A
C854        H863   1.083       .  S
C855        C856   1.401       .  A
C855        H864   1.084       .  S
C856        C862   1.399       .  A
C856        C857   1.413       .  A
C857        C859   1.407       .  A
C857        C858   1.407       .  A
C858        H865   1.084       .  S
C859        C860   1.403       .  A
C859        H866   1.083       .  S
C860        C861   1.402       .  A
C860        H867   1.083       .  S
C861        C862   1.403       .  A
C862        H868   1.085       .  S
C869        C870   1.403       .  A
C869        C874   1.410       .  A
C870        C871   1.400       .  A
C870        H879   1.083       .  S
C871        C872   1.405       .  A
C871        H880   1.083   1_556  S
C872        C878   1.400   1_556  A
C872        C873   1.410       .  A
C873        C874   1.397       .  A
C874        H881   1.085       .  S
C875        C876   1.390       .  A
C875        H882   1.084       .  S
C876        C877   1.403       .  A
C876        H883   1.083       .  S
C878        H884   1.084       .  S
C885        C886   1.404       .  A
C885        C890   1.411       .  A
C886        C887   1.399       .  A
C886        H895   1.083       .  S
C887        C888   1.405       .  A
C887        H896   1.083       .  S
C888        C894   1.401       .  A
C888        C889   1.410       .  A
C889        C891   1.404       .  A
C889        C890   1.399       .  A
C890        H897   1.085       .  S
C891        C892   1.398       .  A
C891        H898   1.083       .  S
C892        C893   1.404       .  A
C892        H899   1.083       .  S
C893        C894   1.411       .  A
C894        H900   1.084       .  S
C901        C902   1.405       .  A
C901        C906   1.406       .  A
C902        C903   1.405       .  A
C902        H911   1.083       .  S
C903        C904   1.407       .  A
C903        H912   1.083       .  S
C904        C910   1.412       .  A
C904        C905   1.413       .  A
C905        C907   1.399       .  A
C905        C906   1.400       .  A
C906        H913   1.085       .  S
C907        C908   1.392       .  A
C907        H914   1.084       .  S
C908        C909   1.405       .  A
C908        H915   1.083       .  S
C909        C910   1.410       .  A
C910        H916   1.084       .  S
C917        C918   1.404       .  A
C917        C922   1.401       .  A
C918        C919   1.400       .  A
C918        H927   1.083       .  S
C919        C920   1.403       .  A
C919        H928   1.083       .  S
C920        C926   1.407       .  A
C920        C921   1.415       .  A
C921        C923   1.400       .  A
C921        C922   1.402       .  A
C922        H929   1.085       .  S
C923        C924   1.393       .  A
C923        H930   1.083       .  S
C924        C925   1.405       .  A
C924        H931   1.084       .  S
C925        C926   1.406       .  A
C926        H932   1.084       .  S
C933        C934   1.407       .  A
C934        C935   1.392       .  A
C934        H943   1.084       .  S
C935        H944   1.083       .  S
C936        C942   1.400       .  A
C936        C937   1.415       .  A
C937        C939   1.401       .  A
C937        C938   1.404       .  A
C938        H945   1.084       .  S
C939        C940   1.397       .  A
C939        H946   1.083       .  S
C940        C941   1.407       .  A
C940        H947   1.084       .  S
C941        C942   1.402       .  A
C942        H948   1.084       .  S
C949        C950   1.406       .  A
C949        C954   1.409       .  A
C950        C951   1.397       .  A
C950        H959   1.083       .  S
C951        C952   1.402       .  A
C951        H960   1.084       .  S
C952        C958   1.403       .  A
C952        C953   1.413       .  A
C953        C955   1.403       .  A
C953        C954   1.406       .  A
C954        H961   1.084       .  S
C955        C956   1.399       .  A
C955        H962   1.084       .  S
C956        C957   1.407       .  A
C956        H963   1.083       .  S
C957        C958   1.408       .  A
C958        H964   1.084       .  S
C965        C966   1.405   1_556  A
C965        C970   1.411       .  A
C966        C967   1.397       .  A
C966        H975   1.083       .  S
C967        C968   1.403       .  A
C967        H976   1.083       .  S
C968        C974   1.397       .  A
C968        C969   1.410   1_554  A
C969        C970   1.398       .  A
C970        H977   1.084       .  S
C971        C972   1.395       .  A
C971        H978   1.083       .  S
C972        C973   1.404       .  A
C972        H979   1.083   1_565  S
C974        H980   1.084       .  S
C981        C982   1.405       .  A
C981        C986   1.404       .  A
C982        C983   1.393       .  A
C982        H991   1.083       .  S
C983        C984   1.400       .  A
C983        H992   1.084       .  S
C984        C990   1.400       .  A
C984        C985   1.415       .  A
C985        C987   1.402       .  A
C985        C986   1.403       .  A
C986        H993   1.084       .  S
C987        C988   1.397       .  A
C987        H994   1.083       .  S
C988        C989   1.405       .  A
C988        H995   1.083       .  S
C989        C990   1.402       .  A
C990        H996   1.085       .  S
C997        C998   1.406       .  A
C997       C1002   1.406       .  A
C998        C999   1.394       .  A
C998       H1007   1.083       .  S
C999       C1000   1.400       .  A
C999       H1008   1.084       .  S
C1000      C1006   1.399       .  A
C1000      C1001   1.413       .  A
C1001      C1003   1.402       .  A
C1001      C1002   1.402       .  A
C1002      H1009   1.084       .  S
C1003      C1004   1.397       .  A
C1003      H1010   1.084       .  S
C1004      C1005   1.406       .  A
C1004      H1011   1.083       .  S
C1005      C1006   1.405       .  A
C1006      H1012   1.084       .  S
C1013      C1014   1.399       .  A
C1013      C1018   1.401       .  A
C1014      C1015   1.396       .  A
C1014      H1023   1.083   1_655  S
C1015      C1016   1.404       .  A
C1015      H1024   1.083       .  S
C1016      C1022   1.397       .  A
C1016      C1017   1.414       .  A
C1017      C1019   1.403       .  A
C1017      C1018   1.399       .  A
C1018      H1025   1.085       .  S
C1019      C1020   1.397       .  A
C1019      H1026   1.083       .  S
C1020      C1021   1.404       .  A
C1020      H1027   1.083       .  S
C1021      C1022   1.407       .  A
C1022      H1028   1.085       .  S
C1029      C1030   1.404   1_556  A
C1030      C1031   1.393       .  A
C1030      H1039   1.083   1_655  S
C1031      H1040   1.083       .  S
C1032      C1038   1.395       .  A
C1032      C1033   1.413       .  A
C1033      C1035   1.405       .  A
C1033      C1034   1.403       .  A
C1034      H1041   1.084       .  S
C1035      C1036   1.401       .  A
C1035      H1042   1.083       .  S
C1036      C1037   1.404       .  A
C1036      H1043   1.083       .  S
C1037      C1038   1.404       .  A
C1038      H1044   1.085       .  S
C1045      C1046   1.409       .  A
C1045      C1050   1.406       .  A
C1046      C1047   1.391       .  A
C1046      H1055   1.083       .  S
C1047      C1048   1.397       .  A
C1047      H1056   1.084       .  S
C1048      C1054   1.400       .  A
C1048      C1049   1.415       .  A
C1049      C1051   1.401       .  A
C1049      C1050   1.406       .  A
C1050      H1057   1.084       .  S
C1051      C1052   1.397       .  A
C1051      H1058   1.084       .  S
C1052      C1053   1.407       .  A
C1052      H1059   1.083       .  S
C1053      C1054   1.402       .  A
C1054      H1060   1.084       .  S
C1061      C1062   1.405       .  A
C1062      C1063   1.392       .  A
C1062      H1071   1.083       .  S
C1063      H1072   1.084       .  S
C1064      C1070   1.395       .  A
C1064      C1065   1.414   1_556  A
C1065      C1067   1.403       .  A
C1065      C1066   1.400       .  A
C1066      H1073   1.085       .  S
C1067      C1068   1.397   1_554  A
C1067      H1074   1.084       .  S
C1068      C1069   1.406       .  A
C1068      H1075   1.083       .  S
C1069      C1070   1.406       .  A
C1070      H1076   1.085       .  S
C1077      C1078   1.399       .  A
C1077      C1082   1.405       .  A
C1078      C1079   1.396       .  A
C1078      H1087   1.084       .  S
C1079      C1080   1.404       .  A
C1079      H1088   1.083       .  S
C1080      C1086   1.398       .  A
C1080      C1081   1.412       .  A
C1081      C1083   1.406       .  A
C1081      C1082   1.403       .  A
C1082      H1089   1.084       .  S
C1083      C1084   1.401       .  A
C1083      H1090   1.083       .  S
C1084      C1085   1.404       .  A
C1084      H1091   1.083       .  S
C1085      C1086   1.409       .  A
C1086      H1092   1.084       .  S
C1093      C1094   1.406       .  A
C1093      C1098   1.408       .  A
C1094      C1095   1.396       .  A
C1094      H1103   1.083       .  S
C1095      C1096   1.401       .  A
C1095      H1104   1.084       .  S
C1096      C1102   1.400       .  A
C1096      C1097   1.412       .  A
C1097      C1099   1.402       .  A
C1097      C1098   1.401       .  A
C1098      H1105   1.084       .  S
C1099      C1100   1.397       .  A
C1099      H1106   1.084       .  S
C1100      C1101   1.406       .  A
C1100      H1107   1.083       .  S
C1101      C1102   1.407       .  A
C1102      H1108   1.084       .  S
C1109      C1110   1.404       .  A
C1109      C1114   1.403       .  A
C1110      C1111   1.393       .  A
C1110      H1119   1.084       .  S
C1111      C1112   1.400       .  A
C1111      H1120   1.083       .  S
C1112      C1118   1.399       .  A
C1112      C1113   1.415       .  A
C1113      C1115   1.402       .  A
C1113      C1114   1.401       .  A
C1114      H1121   1.084       .  S
C1115      C1116   1.396       .  A
C1115      H1122   1.083       .  S
C1116      C1117   1.403       .  A
C1116      H1123   1.083       .  S
C1117      C1118   1.402       .  A
C1118      H1124   1.084       .  S
C1125      C1126   1.405       .  A
C1125      C1130   1.407       .  A
C1126      C1127   1.398       .  A
C1126      H1135   1.083       .  S
C1127      C1128   1.404       .  A
C1128      C1129   1.412       .  A
C1129      C1131   1.402       .  A
C1129      C1130   1.399       .  A
C1130      H1137   1.085       .  S
C1131      C1132   1.396       .  A
C1131      H1138   1.083       .  S
C1132      H1139   1.083       .  S
C1133      C1134   1.410       .  A
C1134      H1140   1.084       .  S
