geometry optimzed in LAMMPS
_audit_creation_date              2020-11-30 
_audit_creation_method            'lammps2cif' 
_symmetry_space_group_name_H-M    'P1' 
_symmetry_Int_Tables_number       1 
_symmetry_cell_setting            triclinic 
loop_ 
_symmetry_equiv_pos_as_xyz 
  x,y,z 
_cell_length_a                    34.73695594 
_cell_length_b                    34.8328063201199 
_cell_length_c                    44.24085273835841 
_cell_angle_alpha                 89.94673668884076 
_cell_angle_beta                  90.02654166855277 
_cell_angle_gamma                 89.86451196344412 
loop_ 
_atom_site_label 
_atom_site_type_symbol 
_atom_site_fract_x 
_atom_site_fract_y 
_atom_site_fract_z 
_atom_site_charge 
O1          O  0.33208182  0.96785018  0.04208591    -0.71500
O2          O  0.33316733  0.96919454  0.45202883    -0.72500
O3          O  0.39043565  0.97016891  0.49730294    -0.61100
O4          O  0.27493841  0.96747441  0.99686036    -0.69500
O5          O  0.27362792  0.03115732  0.99665101    -0.69100
O6          O  0.38962172  0.03368766  0.49751174    -0.60300
O7          O  0.33218993  0.03270030  0.45182447    -0.72800
O8          O  0.33140536  0.03155304  0.04274821    -0.71600
Cu9        Cu  0.33284595  0.96646301  0.49706256     1.04600
Cu10       Cu  0.33155828  0.03464944  0.99725408     1.04300
C11         C  0.33162896  0.99937920  0.05671515     0.94700
C12         C  0.33290700  0.00085611  0.43748671     0.93800
C13         C  0.40828368  0.00222475  0.99753973     0.86000
C14         C  0.25618663  0.99876248  0.49668907     0.92200
O15         O  0.27317222  0.03007578  0.24728832    -0.71500
O16         O  0.38863001  0.02689339  0.24571773    -0.72500
O17         O  0.33039941  0.02795122  0.20126107    -0.61100
O18         O  0.33212186  0.02944290  0.29146182    -0.69500
O19         O  0.33033473  0.96596715  0.29214055    -0.69100
O20         O  0.32900477  0.96426207  0.20137454    -0.60300
O21         O  0.38736301  0.96339211  0.24636057    -0.72800
O22         O  0.27193161  0.96635492  0.24687200    -0.71600
Cu23       Cu  0.33107267  0.03076680  0.24638461     1.04600
Cu24       Cu  0.32955967  0.96274646  0.24674046     1.04300
C25         C  0.25435298  0.99859979  0.24712659     0.94700
C26         C  0.40640169  0.99472910  0.24595268     0.93800
C27         C  0.32985534  0.99609341  0.18701580     0.86000
C28         C  0.33178115  0.99797606  0.30624131     0.92200
O29         O  0.01975107  0.65522266  0.04443723    -0.71500
O30         O  0.02039145  0.65693410  0.45404339    -0.72500
O31         O  0.02122093  0.71345458  0.50020749    -0.61100
O32         O  0.01898980  0.59834443  0.99852798    -0.69500
O33         O  0.95529405  0.59942553  0.99872368    -0.69100
O34         O  0.95739373  0.71469448  0.49908572    -0.60300
O35         O  0.95666577  0.65742742  0.45382476    -0.72800
O36         O  0.95598385  0.65687209  0.04416866    -0.71600
Cu37       Cu  0.02237121  0.65585662  0.49929211     1.04600
Cu38       Cu  0.95403430  0.65713090  0.99893634     1.04300
C39         C  0.98778549  0.65617019  0.05866853     0.94700
C40         C  0.98858844  0.65743924  0.43953272     0.93800
C41         C  0.98962663  0.73229715  0.49986700     0.86000
C42         C  0.98705705  0.58043250  0.49835171     0.92200
O43         O  0.02049670  0.65849856  0.29405447    -0.71500
O44         O  0.01970983  0.65725780  0.20361668    -0.72500
O45         O  0.02060538  0.71535705  0.24807144    -0.61100
O46         O  0.01983282  0.60015957  0.24951569    -0.69500
O47         O  0.95611356  0.60062118  0.24913607    -0.69100
O48         O  0.95674530  0.71599635  0.24956407    -0.60300
O49         O  0.95593818  0.65857526  0.20396037    -0.72800
O50         O  0.95677332  0.65809624  0.29426136    -0.71600
Cu51       Cu  0.02237791  0.65778525  0.24878921     1.04600
Cu52       Cu  0.95417535  0.65833458  0.24920329     1.04300
C53         C  0.98870032  0.65835617  0.30855998     0.94700
C54         C  0.98769022  0.65799158  0.18941778     0.93800
C55         C  0.98882884  0.73385607  0.24884871     0.86000
C56         C  0.98788646  0.58203044  0.24961773     0.92200
O57         O  0.65087018  0.02966524  0.04690072    -0.71500
O58         O  0.65490168  0.02975922  0.45600469    -0.72500
O59         O  0.59499637  0.03201487  0.49989161    -0.61100
O60         O  0.71011320  0.02823069  0.00346520    -0.69500
O61         O  0.70867677  0.96456062  0.00141666    -0.69100
O62         O  0.59340785  0.96854004  0.50122529    -0.60300
O63         O  0.65064980  0.96617190  0.45628654    -0.72800
O64         O  0.65101830  0.96616313  0.04646093    -0.71600
Cu65       Cu  0.65284592  0.03213515  0.50152453     1.04600
Cu66       Cu  0.65085949  0.96418618  0.00132554     1.04300
C67         C  0.65101216  0.99769427  0.06113866     0.94700
C68         C  0.65272662  0.99782423  0.44186705     0.93800
C69         C  0.57570186  0.00073515  0.00017898     0.86000
C70         C  0.72761791  0.99575672  0.50317718     0.92200
O71         O  0.65000926  0.02634626  0.29730766    -0.71500
O72         O  0.64935799  0.02634174  0.20705581    -0.72500
O73         O  0.59169855  0.02542253  0.25198759    -0.61100
O74         O  0.70686079  0.02679660  0.25185564    -0.69500
O75         O  0.70763372  0.96311668  0.25383830    -0.69100
O76         O  0.59221794  0.96191720  0.25068508    -0.60300
O77         O  0.65177398  0.96287440  0.20683445    -0.72800
O78         O  0.64810386  0.96263112  0.29768026    -0.71600
Cu79       Cu  0.64937420  0.02839270  0.25211605     1.04600
Cu80       Cu  0.64993401  0.96036213  0.25229298     1.04300
C81         C  0.64934205  0.99462579  0.31176129     0.94700
C82         C  0.65095304  0.99477248  0.19249302     0.93800
C83         C  0.57357052  0.99357100  0.25069590     0.86000
C84         C  0.72543051  0.99514930  0.25285955     0.92200
N85         N  0.94964493  0.03825137  0.50839867    -0.35200
N86         N  0.03246371  0.03894896  0.50147309    -0.55700
N87         N  0.03301537  0.95564068  0.50212264    -0.35200
N88         N  0.95043948  0.95504915  0.50672919    -0.55700
C89         C  0.95602868  0.07500743  0.49999649     0.28400
C90         C  0.91243675  0.03029584  0.50210131     0.28400
C91         C  0.06862674  0.96372740  0.49165324     0.28400
C92         C  0.02484151  0.91909825  0.49407510     0.28400
C93         C  0.02602545  0.07591031  0.50931229     0.37000
C94         C  0.07024728  0.03209299  0.50642587     0.37000
C95         C  0.91391440  0.96153908  0.51571194     0.37000
C96         C  0.95803022  0.91784162  0.51285610     0.37000
C97         C  0.92250634  0.09064565  0.48816182    -0.20500
C98         C  0.89495281  0.06235492  0.48944256    -0.20500
C99         C  0.08318586  0.93208105  0.47641334    -0.20500
C100        C  0.05547486  0.90386660  0.47791736    -0.20500
C101        C  0.05976204  0.09261350  0.51949142    -0.21500
C102        C  0.08779241  0.06474727  0.51783832    -0.21500
C103        C  0.89826366  0.92847960  0.52801690    -0.21500
C104        C  0.92638076  0.90073689  0.52635512    -0.21500
C105        C  0.99068888  0.09525011  0.50481608    -0.16900
C106        C  0.89352465  0.99563842  0.50945811    -0.16900
C107        C  0.99164080  0.89863213  0.50316409    -0.16900
C108        C  0.08928896  0.99769172  0.49819510    -0.16900
H109        H  0.91824922  0.11951680  0.47972177     0.16000
H110        H  0.86533130  0.06523081  0.48218238     0.16000
H111        H  0.11114698  0.92937191  0.46583713     0.16000
H112        H  0.05789771  0.87521004  0.46866863     0.16000
H113        H  0.06380941  0.12188642  0.52700492     0.14300
H114        H  0.11774913  0.06835149  0.52388934     0.14300
H115        H  0.86934702  0.92456117  0.53656560     0.14300
H116        H  0.92346021  0.87114257  0.53343969     0.14300
H117        H  0.96838258  0.02104318  0.52093505     0.27600
H118        H  0.01736701  0.97239438  0.51732117     0.27600
N119        N  0.94887949  0.95665133  0.25083879    -0.35200
N120        N  0.94765874  0.03995277  0.24746259    -0.55700
N121        N  0.03072569  0.04010720  0.24791824    -0.35200
N122        N  0.03182298  0.95685055  0.24870270    -0.55700
C123        C  0.91194061  0.96385737  0.24308120     0.28400
C124        C  0.95651850  0.91986403  0.24311918     0.28400
C125        C  0.02299687  0.07666638  0.23949079     0.28400
C126        C  0.06768161  0.03268019  0.24031706     0.28400
C127        C  0.91091813  0.03289490  0.25566820     0.37000
C128        C  0.95420878  0.07737624  0.25352779     0.37000
C129        C  0.02558598  0.91975390  0.25610765     0.37000
C130        C  0.06909887  0.96410853  0.25508771     0.37000
C131        C  0.89596926  0.93143545  0.22996943    -0.20500
C132        C  0.92417886  0.90361381  0.22997030    -0.20500
C133        C  0.05533023  0.09258803  0.22610537    -0.20500
C134        C  0.08360022  0.06478724  0.22665252    -0.20500
C135        C  0.89409407  0.06590836  0.26719873    -0.21500
C136        C  0.92154368  0.09418578  0.26573532    -0.21500
C137        C  0.05897746  0.90337492  0.26749187    -0.21500
C138        C  0.08663323  0.93153385  0.26680986    -0.21500
C139        C  0.89170613  0.99792323  0.25008956    -0.16900
C140        C  0.99097375  0.90003969  0.25001154    -0.16900
C141        C  0.08800707  0.99875045  0.24778992    -0.16900
C142        C  0.98864288  0.09676459  0.24626961    -0.16900
H143        H  0.86684057  0.92798719  0.22173197     0.16000
H144        H  0.92102622  0.87455419  0.22170880     0.16000
H145        H  0.05846650  0.12147991  0.21744288     0.16000
H146        H  0.11275786  0.06808024  0.21845408     0.16000
H147        H  0.86494514  0.06940707  0.27538445     0.14300
H148        H  0.91779761  0.12373681  0.27268444     0.14300
H149        H  0.06314413  0.87407853  0.27499687     0.14300
H150        H  0.11636676  0.92822860  0.27367123     0.14300
H151        H  0.96616663  0.97423280  0.26415484     0.27600
H152        H  0.01350407  0.02298780  0.26164031     0.27600
O153        O  0.01873790  0.33755475  0.04494643    -0.71500
O154        O  0.01768733  0.33797640  0.45503411    -0.72500
O155        O  0.01792552  0.39509861  0.49999370    -0.61100
O156        O  0.01853265  0.27984453  0.49971385    -0.69500
O157        O  0.95468425  0.27955013  0.50146676    -0.69100
O158        O  0.95422291  0.39508151  0.49970999    -0.60300
O159        O  0.95397008  0.33684674  0.45513504    -0.72800
O160        O  0.95505158  0.33828994  0.04549453    -0.71600
Cu161      Cu  0.02042437  0.33752506  0.49996570     1.04600
Cu162      Cu  0.95207855  0.33748178  0.00035646     1.04300
C163        C  0.98712046  0.33813658  0.05963819     0.94700
C164        C  0.98581177  0.33782072  0.44069299     0.93800
C165        C  0.98603409  0.41345826  0.49954632     0.86000
C166        C  0.98675671  0.26149957  0.50083961     0.92200
O167        O  0.01926941  0.33928998  0.29563406    -0.71500
O168        O  0.02037459  0.33922887  0.20521746    -0.72500
O169        O  0.01973540  0.39682245  0.25061853    -0.61100
O170        O  0.02020851  0.28141329  0.25052241    -0.69500
O171        O  0.95636743  0.28127418  0.24895269    -0.69100
O172        O  0.95601392  0.39671198  0.25068791    -0.60300
O173        O  0.95668483  0.33992726  0.20501110    -0.73600
O174        O  0.95555067  0.33837483  0.29517003    -0.71600
Cu175      Cu  0.02212556  0.33916171  0.25052058     1.04600
Cu176      Cu  0.95395687  0.33904145  0.24997259     1.04300
C177        C  0.98723844  0.33912501  0.30979691     0.94700
C178        C  0.98856946  0.33967050  0.19069657     0.93800
C179        C  0.98780323  0.41512631  0.25083411     0.86000
C180        C  0.98839142  0.26312670  0.24932860     0.92200
C181        C  0.95220994  0.34694984  0.39084469     0.25000
C182        C  0.98606699  0.33891235  0.40721824    -0.23100
C183        C  0.02051866  0.33238657  0.39121313     0.19900
C184        C  0.02092909  0.33285714  0.35970454     0.25000
C185        C  0.98688782  0.33977852  0.34328160    -0.23000
C186        C  0.95261561  0.34738970  0.35925887     0.19900
F187        F  0.91943431  0.35591561  0.34443206    -0.13000
F188        F  0.91867822  0.35506377  0.40528653    -0.15300
F189        F  0.05481987  0.32595403  0.34539878    -0.15300
F190        F  0.05404254  0.32497323  0.40592808    -0.13000
C191        C  0.02270631  0.33694614  0.10917548     0.25000
C192        C  0.98763873  0.33872874  0.09316396    -0.23100
C193        C  0.95302042  0.34122627  0.10961447     0.19900
C194        C  0.95340437  0.34172122  0.14113068     0.25000
C195        C  0.98842498  0.33970353  0.15716927    -0.23000
C196        C  0.02309062  0.33743597  0.14074436     0.19900
F197        F  0.05761537  0.33548854  0.15508184    -0.13000
F198        F  0.05690636  0.33456219  0.09443232    -0.15300
F199        F  0.91916082  0.34427591  0.15579686    -0.15300
F200        F  0.91845255  0.34333194  0.09535493    -0.13000
C201        C  0.01424797  0.15945974  0.26572513     0.25000
C202        C  0.98905444  0.13960975  0.24639811    -0.23100
C203        C  0.96393364  0.16072779  0.22771336     0.19900
C204        C  0.96339861  0.20091126  0.22890882     0.25000
C205        C  0.98867602  0.22070289  0.24822509    -0.23000
C206        C  0.01441630  0.19961962  0.26634184     0.19900
F207        F  0.03890656  0.21789962  0.28540416    -0.13000
F208        F  0.03826349  0.13983661  0.28443172    -0.15300
F209        F  0.93889875  0.22053139  0.21058432    -0.15300
F210        F  0.94004695  0.14238170  0.20821022    -0.13000
C211        C  0.96583783  0.15895264  0.02350807     0.25000
C212        C  0.98995404  0.13809491  0.50403936    -0.23100
C213        C  0.01254713  0.15831555  0.48301124     0.19900
C214        C  0.01157716  0.19846985  0.48207473     0.25000
C215        C  0.98728820  0.21911226  0.50161689    -0.23000
C216        C  0.96414695  0.19908452  0.02207240     0.19900
F217        F  0.94081769  0.21831092  0.04151159    -0.13000
F218        F  0.94415783  0.14023619  0.04434847    -0.15300
F219        F  0.03354579  0.21719841  0.46143512    -0.15300
F220        F  0.03510146  0.13908577  0.46302588    -0.13000
C221        C  0.78919978  0.96986297  0.27009326     0.25000
C222        C  0.76778985  0.99573447  0.25237329    -0.23100
C223        C  0.78716751  0.02214047  0.23382520     0.19900
C224        C  0.82731225  0.02227873  0.23260565     0.25000
C225        C  0.84886298  0.99704958  0.25082709    -0.23000
C226        C  0.82943278  0.97091268  0.26968097     0.19900
F227        F  0.84947329  0.94660721  0.28786973    -0.13000
F228        F  0.77117708  0.94432284  0.28844446    -0.15300
F229        F  0.84519781  0.04686205  0.21338625    -0.15300
F230        F  0.76718017  0.04708717  0.21614640    -0.13000
C231        C  0.67707177  0.02046327  0.39178449     0.25000
C232        C  0.65201526  0.99717293  0.40860118    -0.23100
C233        C  0.62636326  0.97268003  0.39339148     0.19900
C234        C  0.62563074  0.97163054  0.36181632     0.25000
C235        C  0.65044163  0.99514748  0.34500319    -0.23000
C236        C  0.67629772  0.01944252  0.36018456     0.19900
F237        F  0.70164454  0.04126635  0.34438467    -0.13000
F238        F  0.70314100  0.04320515  0.40594787    -0.15300
F239        F  0.59983862  0.94857216  0.34765774    -0.15300
F240        F  0.60117739  0.95060926  0.40913731    -0.13000
C241        C  0.65095499  0.96178586  0.11058056     0.25000
C242        C  0.65138522  0.99697235  0.09475187    -0.23100
C243        C  0.65253756  0.03133759  0.11147968     0.19900
C244        C  0.65271224  0.03057571  0.14305846     0.25000
C245        C  0.65168036  0.99540836  0.15888834    -0.23000
C246        C  0.65111181  0.96102651  0.14216771     0.19900
F247        F  0.65052272  0.92637229  0.15623888    -0.13000
F248        F  0.65030127  0.92776362  0.09563261    -0.15300
F249        F  0.65401197  0.06458435  0.15800099    -0.15300
F250        F  0.65359186  0.06599202  0.09742628    -0.13000
C251        C  0.78887979  0.01940332  0.02566135     0.25000
C252        C  0.76986896  0.99478806  0.50532382    -0.23100
C253        C  0.79143959  0.96983600  0.48701102     0.19900
C254        C  0.83163020  0.97004617  0.48843203     0.25000
C255        C  0.85077804  0.99451429  0.50873842    -0.23000
C256        C  0.82901619  0.01896452  0.02760786     0.19900
F257        F  0.84681476  0.04219806  0.04787098    -0.13000
F258        F  0.76858259  0.04308106  0.04413631    -0.15300
F259        F  0.85195832  0.94699475  0.46949876    -0.15300
F260        F  0.77365545  0.94633238  0.46693816    -0.13000
C261        C  0.02105035  0.51865832  0.25860686     0.25000
C262        C  0.98771288  0.53932573  0.25036775    -0.23100
C263        C  0.95418521  0.51866981  0.24295523     0.19900
C264        C  0.95414850  0.47850427  0.24332498     0.25000
C265        C  0.98763886  0.45783108  0.25110895    -0.23000
C266        C  0.02100844  0.47848051  0.25898241     0.19900
F267        F  0.05363563  0.45990863  0.26760407    -0.13000
F268        F  0.05373117  0.53722410  0.26686967    -0.15300
F269        F  0.92132312  0.45995582  0.23541617    -0.15300
F270        F  0.92138622  0.53721233  0.23472554    -0.13000
C271        C  0.01541432  0.79642605  0.23079684     0.25000
C272        C  0.98928314  0.77620637  0.24907080    -0.23100
C273        C  0.96388517  0.79677303  0.26778359     0.19900
C274        C  0.96501972  0.83690070  0.26855829     0.25000
C275        C  0.99080131  0.85721588  0.24997401    -0.23000
C276        C  0.01577429  0.83657695  0.23090640     0.19900
F277        F  0.04014911  0.85536581  0.21204663    -0.13000
F278        F  0.03981382  0.77729990  0.21211947    -0.15300
F279        F  0.94105307  0.85599798  0.28759721    -0.15300
F280        F  0.93870891  0.77796741  0.28597728    -0.13000
C281        C  0.02030756  0.51664703  0.49182116     0.25000
C282        C  0.98651823  0.53769859  0.49801303    -0.23100
C283        C  0.95211242  0.51747707  0.00413225     0.19900
C284        C  0.95185195  0.47729709  0.00442777     0.25000
C285        C  0.98604141  0.45617284  0.49875217    -0.23000
C286        C  0.02007299  0.47649907  0.49219078     0.19900
F287        F  0.05330163  0.45764255  0.48566818    -0.13000
F288        F  0.05376059  0.53477275  0.48498499    -0.15300
F289        F  0.91832340  0.45911804  0.01093337    -0.15300
F290        F  0.91881767  0.53635954  0.01037847    -0.13000
C291        C  0.02271395  0.66570413  0.38989493     0.25000
C292        C  0.98864946  0.65796152  0.40603295    -0.23100
C293        C  0.95458496  0.65065375  0.38975866     0.19900
C294        C  0.95462238  0.65086456  0.35821985     0.25000
C295        C  0.98872697  0.65839433  0.34206200    -0.23000
C296        C  0.02275836  0.66589824  0.35832237     0.19900
F297        F  0.05620178  0.67397294  0.34379084    -0.13000
F298        F  0.05609956  0.67367085  0.40455697    -0.15300
F299        F  0.92114549  0.64305848  0.34362271    -0.15300
F300        F  0.92108429  0.64264531  0.40423878    -0.13000
C301        C  0.95473373  0.64537541  0.10832912     0.25000
C302        C  0.98763172  0.65678246  0.09210119    -0.23100
C303        C  0.02028633  0.66922643  0.10817038     0.19900
C304        C  0.02016591  0.66992132  0.13972488     0.25000
C305        C  0.98744105  0.65806085  0.15597186    -0.23000
C306        C  0.95461505  0.64606278  0.13989894     0.19900
F307        F  0.92253332  0.63412349  0.15466437    -0.13000
F308        F  0.92281937  0.63267621  0.09372815    -0.15300
F309        F  0.05191107  0.68309032  0.15429840    -0.15300
F310        F  0.05219647  0.68162771  0.09340379    -0.13000
C311        C  0.96238800  0.79610900  0.48471931     0.25000
C312        C  0.99040530  0.77473296  0.50040491    -0.23100
C313        C  0.01891363  0.79434055  0.01677890     0.19900
C314        C  0.01919359  0.83448896  0.01783708     0.25000
C315        C  0.99165761  0.85582872  0.50171167    -0.23000
C316        C  0.96339583  0.83624365  0.48494984     0.19900
F317        F  0.93673678  0.85605508  0.46872869    -0.13000
F318        F  0.93450222  0.77815655  0.46855025    -0.15300
F319        F  0.04630398  0.85248348  0.03476739    -0.15300
F320        F  0.04602463  0.77453484  0.03253055    -0.13000
C321        C  0.46954001  0.95941998  0.25110893     0.25000
C322        C  0.44920810  0.99394383  0.24613366    -0.23100
C323        C  0.47032310  0.02801633  0.24189617     0.19900
C324        C  0.51048254  0.02779595  0.24332230     0.25000
C325        C  0.53082191  0.99347651  0.24892531    -0.23000
C326        C  0.50979814  0.95918673  0.25245846     0.19900
F327        F  0.52800893  0.92528099  0.25767437    -0.13000
F328        F  0.45061373  0.92573950  0.25516211    -0.15300
F329        F  0.52933748  0.06142408  0.23884373    -0.15300
F330        F  0.45226888  0.06186073  0.23614022    -0.13000
C331        C  0.19143923  0.97512898  0.22735899     0.25000
C332        C  0.21194206  0.99932054  0.24698882    -0.23100
C333        C  0.19161075  0.02383920  0.26654176     0.19900
C334        C  0.15132620  0.02354694  0.26689443     0.25000
C335        C  0.13082076  0.99932463  0.24725839    -0.23000
C336        C  0.15120344  0.97546051  0.22724124     0.19900
F337        F  0.13204035  0.95262723  0.20747206    -0.13000
F338        F  0.21042929  0.95186213  0.20774708    -0.15300
F339        F  0.13225557  0.04644082  0.28672638    -0.15300
F340        F  0.21076941  0.04709694  0.28600184    -0.13000
C341        C  0.51251211  0.03622796  0.99483267     0.25000
C342        C  0.53287346  0.00159702  0.99936982    -0.23100
C343        C  0.51186433  0.96775361  0.50449596     0.19900
C344        C  0.47172074  0.96804441  0.50365893     0.25000
C345        C  0.45113583  0.00231804  0.99791458    -0.23000
C346        C  0.47216794  0.03658493  0.99412382     0.19900
F347        F  0.45387857  0.07056604  0.98939762    -0.13000
F348        F  0.53147537  0.06989752  0.99081053    -0.15300
F349        F  0.45298700  0.93451720  0.50884667    -0.15300
F350        F  0.52989553  0.93399815  0.51059810    -0.13000
C351        C  0.33628705  0.03381337  0.35556074     0.25000
C352        C  0.33298212  0.99874965  0.33981852    -0.23100
C353        C  0.33071970  0.96446667  0.35660065     0.19900
C354        C  0.33084457  0.96522956  0.38814346     0.25000
C355        C  0.33337609  0.00030627  0.40390892    -0.23000
C356        C  0.33642264  0.03457549  0.38715927     0.19900
F357        F  0.33973444  0.06905630  0.40121142    -0.13000
F358        F  0.33956130  0.06764944  0.34051771    -0.15300
F359        F  0.32815606  0.93129634  0.40311768    -0.15300
F360        F  0.32818244  0.92986996  0.34263682    -0.13000
C361        C  0.31030512  0.96870520  0.13702566     0.25000
C362        C  0.33065630  0.99635583  0.15370090    -0.23100
C363        C  0.35181207  0.02462993  0.13826389     0.19900
C364        C  0.35209497  0.02567045  0.10669963     0.25000
C365        C  0.33132898  0.99838012  0.09002038    -0.23000
C366        C  0.31066855  0.96969581  0.10542912     0.19900
F367        F  0.28988898  0.94326756  0.08989531    -0.13000
F368        F  0.28909850  0.94144941  0.15128080    -0.15300
F369        F  0.37370273  0.05260261  0.09244397    -0.15300
F370        F  0.37318868  0.05061843  0.15375575    -0.13000
C371        C  0.15238827  0.02390041  0.47896072     0.25000
C372        C  0.13226032  0.99700886  0.49667749    -0.23100
C373        C  0.15318323  0.96998270  0.01338362     0.19900
C374        C  0.19344984  0.97012921  0.01292618     0.25000
C375        C  0.21363982  0.99787186  0.49636876    -0.23000
C376        C  0.19266706  0.02479595  0.47927220     0.19900
F377        F  0.21119944  0.05148270  0.46230885    -0.13000
F378        F  0.13297981  0.04939247  0.46137219    -0.15300
F379        F  0.21286403  0.94383366  0.02976547    -0.15300
F380        F  0.13474104  0.94386676  0.03095532    -0.13000
O381        O  0.33236437  0.96772804  0.54210195    -0.71500
O382        O  0.33307058  0.96942340  0.95201669    -0.72500
O383        O  0.39023091  0.97029234  0.99733400    -0.61100
O384        O  0.27510762  0.96727920  0.49695969    -0.69500
O385        O  0.27379840  0.03096173  0.49671270    -0.69100
O386        O  0.38947824  0.03379905  0.99757736    -0.60300
O387        O  0.33212327  0.03292673  0.95183955    -0.72800
O388        O  0.33163811  0.03142960  0.54273768    -0.71600
Cu389      Cu  0.33265381  0.96663392  0.99704129     1.04600
Cu390      Cu  0.33171287  0.03448230  0.49724076     1.04300
C391        C  0.33189762  0.99926556  0.55671925     0.94700
C392        C  0.33286847  0.00109473  0.93748793     0.93800
C393        C  0.40844685  0.00212805  0.49751895     0.86000
C394        C  0.25601843  0.99895466  0.99657869     0.92200
O395        O  0.27308553  0.03016793  0.74727215    -0.71500
O396        O  0.38856272  0.02696810  0.74571683    -0.72500
O397        O  0.33033711  0.02798485  0.70125296    -0.61100
O398        O  0.33204890  0.02962174  0.79144212    -0.69500
O399        O  0.33025292  0.96614815  0.79217477    -0.69100
O400        O  0.32897207  0.96429751  0.70141156    -0.60300
O401        O  0.38728434  0.96346933  0.74642274    -0.72800
O402        O  0.27186756  0.96644694  0.74689675    -0.71600
Cu403      Cu  0.33099765  0.03086270  0.74636971     1.04600
Cu404      Cu  0.32949086  0.96284435  0.74678127     1.04300
C405        C  0.25427619  0.99868377  0.74713252     0.94700
C406        C  0.40632965  0.99479916  0.74599719     0.93800
C407        C  0.32983629  0.99611211  0.68702870     0.86000
C408        C  0.33172033  0.99817675  0.80624753     0.92200
O409        O  0.01985756  0.65508362  0.54445882    -0.71500
O410        O  0.02023182  0.65686563  0.95404890    -0.72500
O411        O  0.02104745  0.71354729  0.00015626    -0.61100
O412        O  0.01916694  0.59827786  0.49847705    -0.69500
O413        O  0.95547267  0.59933615  0.49864914    -0.69100
O414        O  0.95722112  0.71476464  0.99904182    -0.60300
O415        O  0.95650521  0.65735080  0.95381549    -0.72800
O416        O  0.95609106  0.65672408  0.54413915    -0.71600
Cu417      Cu  0.02221541  0.65592387  0.99928571     1.04600
Cu418      Cu  0.95419067  0.65706310  0.49892426     1.04300
C419        C  0.98786886  0.65602987  0.55866474     0.94700
C420        C  0.98843728  0.65724323  0.93952976     0.93800
C421        C  0.98944356  0.73238241  0.99984295     0.86000
C422        C  0.98686929  0.58051479  0.99840905     0.92200
O423        O  0.02026785  0.65843940  0.79402312    -0.71500
O424        O  0.01943563  0.65744438  0.70361503    -0.72500
O425        O  0.02032814  0.71546250  0.74810252    -0.61100
O426        O  0.01953422  0.60026332  0.74942393    -0.69500
O427        O  0.95581257  0.60073601  0.74906479    -0.69100
O428        O  0.95646938  0.71609003  0.74961316    -0.60300
O429        O  0.95566409  0.65876561  0.70394284    -0.72800
O430        O  0.95654359  0.65804278  0.79427795    -0.71600
Cu431      Cu  0.02210577  0.65787763  0.74876812     1.04600
Cu432      Cu  0.95390246  0.65843037  0.74920150     1.04300
C433        C  0.98849374  0.65817226  0.80855276     0.94700
C434        C  0.98742658  0.65819628  0.68940837     0.93800
C435        C  0.98854548  0.73395758  0.74885287     0.86000
C436        C  0.98758151  0.58214506  0.74953537     0.92200
O437        O  0.65098426  0.02960766  0.54690820    -0.71500
O438        O  0.65480330  0.02976953  0.95598391    -0.72500
O439        O  0.59488678  0.03198359  0.99985951    -0.61100
O440        O  0.71023797  0.02808728  0.50348364    -0.69500
O441        O  0.70871016  0.96442128  0.50141317    -0.69100
O442        O  0.59334856  0.96851815  0.00118762    -0.60300
O443        O  0.65064079  0.96617618  0.95628879    -0.72800
O444        O  0.65107154  0.96610455  0.54647522    -0.71600
Cu445      Cu  0.65272673  0.03217995  0.00150656     1.04600
Cu446      Cu  0.65089806  0.96414085  0.50133271     1.04300
C447        C  0.65107626  0.99764080  0.56114888     0.94700
C448        C  0.65269650  0.99781928  0.94185884     0.93800
C449        C  0.57579568  0.00077508  0.50024907     0.86000
C450        C  0.72753890  0.99592728  0.00315980     0.92200
O451        O  0.65000838  0.02638212  0.79732494    -0.71500
O452        O  0.64917967  0.02641360  0.70705698    -0.72500
O453        O  0.59162103  0.02542589  0.75207144    -0.61100
O454        O  0.70675189  0.02696725  0.75179928    -0.69500
O455        O  0.70761156  0.96328746  0.75378150    -0.69100
O456        O  0.59216893  0.96192287  0.75073893    -0.60300
O457        O  0.65167642  0.96294833  0.70684403    -0.72800
O458        O  0.64815079  0.96266467  0.79766541    -0.71600
Cu459      Cu  0.64927773  0.02846330  0.75212753     1.04600
Cu460      Cu  0.64990633  0.96043306  0.75228964     1.04300
C461        C  0.64939109  0.99464536  0.81176116     0.94700
C462        C  0.65080459  0.99483901  0.69249913     0.93800
C463        C  0.57350520  0.99356989  0.75078241     0.86000
C464        C  0.72536325  0.99534752  0.75279334     0.92200
N465        N  0.94958054  0.03845547  0.00825094    -0.35200
N466        N  0.03236281  0.03906306  0.00122060    -0.55700
N467        N  0.03285701  0.95572139  0.00217117    -0.35200
N468        N  0.95031219  0.95523278  0.00688731    -0.55700
C469        C  0.95597929  0.07517417  0.99976030     0.28400
C470        C  0.91236057  0.03050491  0.00200658     0.28400
C471        C  0.06843134  0.96374789  0.99159433     0.28400
C472        C  0.02463951  0.91914025  0.99425652     0.28400
C473        C  0.02597526  0.07604924  0.00901206     0.37000
C474        C  0.07013627  0.03217555  0.00617933     0.37000
C475        C  0.91378469  0.96180149  0.01582757     0.37000
C476        C  0.95785234  0.91803568  0.01309789     0.37000
C477        C  0.92245388  0.09079883  0.98792235    -0.20500
C478        C  0.89488225  0.06253254  0.98928987    -0.20500
C479        C  0.08292480  0.93201878  0.97642280    -0.20500
C480        C  0.05521364  0.90381762  0.97808240    -0.20500
C481        C  0.05973010  0.09273646  0.01916616    -0.21500
C482        C  0.08772280  0.06483334  0.01754915    -0.21500
C483        C  0.89808235  0.92880332  0.02819617    -0.21500
C484        C  0.92616876  0.90101838  0.02661463    -0.21500
C485        C  0.99065327  0.09540706  0.00452299    -0.16900
C486        C  0.89343095  0.99589311  0.00946356    -0.16900
C487        C  0.99143058  0.89874283  0.00343389    -0.16900
C488        C  0.08913299  0.99773626  0.99799182    -0.16900
H489        H  0.91820764  0.11964653  0.97942897     0.16000
H490        H  0.86525089  0.06540794  0.98205469     0.16000
H491        H  0.11084477  0.92924908  0.96578975     0.16000
H492        H  0.05759193  0.87511824  0.96890969     0.16000
H493        H  0.06381164  0.12201697  0.02664962     0.14300
H494        H  0.11768113  0.06841264  0.02360418     0.14300
H495        H  0.86914706  0.92494704  0.03672406     0.14300
H496        H  0.92320070  0.87144744  0.03374753     0.14300
H497        H  0.96832107  0.02128463  0.02082121     0.27600
H498        H  0.01726479  0.97256656  0.01734743     0.27600
N499        N  0.94873524  0.95685469  0.75050190    -0.35200
N500        N  0.94762933  0.04018028  0.74746353    -0.55700
N501        N  0.03069192  0.04021833  0.74795516    -0.35200
N502        N  0.03167403  0.95692277  0.74837218    -0.55700
C503        C  0.91178838  0.96414729  0.74282162     0.28400
C504        C  0.95629329  0.92007977  0.74269533     0.28400
C505        C  0.02302493  0.07683530  0.73964376     0.28400
C506        C  0.06763975  0.03277424  0.74034152     0.28400
C507        C  0.91086749  0.03313767  0.75561732     0.37000
C508        C  0.95422199  0.07756738  0.75363666     0.37000
C509        C  0.02537458  0.91979269  0.75564994     0.37000
C510        C  0.06894463  0.96410434  0.75483995     0.37000
C511        C  0.89572975  0.93179388  0.72966847    -0.20500
C512        C  0.92389351  0.90392561  0.72956582    -0.20500
C513        C  0.05538987  0.09277530  0.72631976    -0.20500
C514        C  0.08361477  0.06492892  0.72678681    -0.20500
C515        C  0.89406974  0.06612477  0.76721776    -0.21500
C516        C  0.92156080  0.09436893  0.76585818    -0.21500
C517        C  0.05872423  0.90331372  0.76702000    -0.21500
C518        C  0.08641211  0.93144393  0.76647469    -0.21500
C519        C  0.89161716  0.99821126  0.74994990    -0.16900
C520        C  0.99071587  0.90016500  0.74952575    -0.16900
C521        C  0.08791207  0.99877509  0.74771129    -0.16900
C522        C  0.98868548  0.09694605  0.74644830    -0.16900
H523        H  0.86656939  0.92841576  0.72148144     0.16000
H524        H  0.92066833  0.87489271  0.72126355     0.16000
H525        H  0.05857549  0.12170298  0.71774354     0.16000
H526        H  0.11277943  0.06821901  0.71860319     0.16000
H527        H  0.86491288  0.06962928  0.77538459     0.14300
H528        H  0.91784399  0.12389507  0.77288216     0.14300
H529        H  0.06283698  0.87398104  0.77445400     0.14300
H530        H  0.11612024  0.92806966  0.77338263     0.14300
H531        H  0.96607451  0.97435319  0.76384203     0.27600
H532        H  0.01343612  0.02304325  0.76160776     0.27600
O533        O  0.01886837  0.33736020  0.54511810    -0.71500
O534        O  0.01751203  0.33801726  0.95487574    -0.72500
O535        O  0.01767692  0.39522948  0.99978605    -0.61100
O536        O  0.01844962  0.28000628  0.99958006    -0.69500
O537        O  0.95459494  0.27966015  0.00127943    -0.69100
O538        O  0.95397058  0.39518177  0.99962024    -0.60300
O539        O  0.95374435  0.33701976  0.95500222    -0.72800
O540        O  0.95518309  0.33823824  0.54562236    -0.71600
Cu541      Cu  0.02026430  0.33766896  0.99979794     1.04600
Cu542      Cu  0.95225762  0.33737392  0.50048880     1.04300
C543        C  0.98723475  0.33802209  0.55978800     0.94700
C544        C  0.98560420  0.33785264  0.94058061     0.93800
C545        C  0.98577286  0.41356977  0.99939952     0.86000
C546        C  0.98668698  0.26163990  0.00066366     0.92200
O547        O  0.01917508  0.33945124  0.79577452    -0.71500
O548        O  0.02028198  0.33939811  0.70537958    -0.72500
O549        O  0.01950231  0.39700837  0.75075091    -0.61100
O550        O  0.02019656  0.28161427  0.75069786    -0.69500
O551        O  0.95634893  0.28141657  0.74920660    -0.69100
O552        O  0.95577799  0.39683507  0.75071587    -0.60300
O553        O  0.95658944  0.33992531  0.70513855    -0.73600
O554        O  0.95540712  0.33865849  0.79531159    -0.71600
Cu555      Cu  0.02201722  0.33935472  0.75067333     1.04600
Cu556      Cu  0.95382953  0.33917653  0.75010979     1.04300
C557        C  0.98712363  0.33929589  0.80990468     0.94700
C558        C  0.98849024  0.33972557  0.69084243     0.93800
C559        C  0.98754710  0.41527705  0.75089480     0.86000
C560        C  0.98839283  0.26330128  0.74956509     0.92200
C561        C  0.95316265  0.35074735  0.89086350     0.25000
C562        C  0.98586207  0.33874411  0.90716706    -0.23100
C563        C  0.01926085  0.32810136  0.89118837     0.19900
C564        C  0.01973641  0.32865696  0.85968420     0.25000
C565        C  0.98679078  0.33975827  0.84332770    -0.23000
C566        C  0.95362518  0.35126135  0.85927666     0.19900
F567        F  0.92180958  0.36386954  0.84439056    -0.13000
F568        F  0.92094223  0.36288107  0.90541085    -0.15300
F569        F  0.05240303  0.31750229  0.84527547    -0.15300
F570        F  0.05148154  0.31634903  0.90596330    -0.13000
C571        C  0.02273525  0.33664047  0.60935936     0.25000
C572        C  0.98770651  0.33864265  0.59331299    -0.23100
C573        C  0.95307812  0.34139766  0.60972739     0.19900
C574        C  0.95341365  0.34193045  0.64124358     0.25000
C575        C  0.98839338  0.33969850  0.65731644    -0.23000
C576        C  0.02307059  0.33716648  0.64092790     0.19900
F577        F  0.05755686  0.33497267  0.65530173    -0.13000
F578        F  0.05694117  0.33399689  0.59465114    -0.15300
F579        F  0.91916835  0.34475958  0.65587652    -0.15300
F580        F  0.91854960  0.34374146  0.59543128    -0.13000
C581        C  0.01432198  0.15963664  0.76592743     0.25000
C582        C  0.98910756  0.13979342  0.74660879    -0.23100
C583        C  0.96396122  0.16092162  0.72795250     0.19900
C584        C  0.96340895  0.20109779  0.72917230     0.25000
C585        C  0.98870424  0.22088260  0.74847284    -0.23000
C586        C  0.01448004  0.19979993  0.76656028     0.19900
F587        F  0.03899314  0.21808058  0.78560511    -0.13000
F588        F  0.03836871  0.14000630  0.78460469    -0.15300
F589        F  0.93887113  0.22072264  0.71088211    -0.15300
F590        F  0.94006021  0.14259187  0.70845128    -0.13000
C591        C  0.96585048  0.15882595  0.52375691     0.25000
C592        C  0.98992636  0.13824873  0.00376345    -0.23100
C593        C  0.01252127  0.15849542  0.98275033     0.19900
C594        C  0.01154953  0.19865177  0.98184891     0.25000
C595        C  0.98725365  0.21926016  0.00140925    -0.23000
C596        C  0.96416422  0.19896151  0.52228862     0.19900
F597        F  0.94082016  0.21821343  0.54170152    -0.13000
F598        F  0.94414796  0.14013392  0.54459704    -0.15300
F599        F  0.03352258  0.21741497  0.96123053    -0.15300
F600        F  0.03508017  0.13929277  0.96275160    -0.13000
C601        C  0.78915347  0.97017944  0.77005223     0.25000
C602        C  0.76771844  0.99599812  0.75230604    -0.23100
C603        C  0.78706702  0.02242120  0.73375124     0.19900
C604        C  0.82721270  0.02259543  0.73252873     0.25000
C605        C  0.84878173  0.99737360  0.75074061    -0.23000
C606        C  0.82938235  0.97125285  0.76962381     0.19900
F607        F  0.84945266  0.94697757  0.78781695    -0.13000
F608        F  0.77115647  0.94466538  0.78844120    -0.15300
F609        F  0.84508196  0.04719338  0.71331125    -0.15300
F610        F  0.76705331  0.04734432  0.71606987    -0.13000
C611        C  0.67710886  0.02043590  0.89179405     0.25000
C612        C  0.65204609  0.99713482  0.90859516    -0.23100
C613        C  0.62645654  0.97259061  0.89337274     0.19900
C614        C  0.62574749  0.97154866  0.86179890     0.25000
C615        C  0.65052108  0.99512170  0.84500035    -0.23000
C616        C  0.67636008  0.01942053  0.86019395     0.19900
F617        F  0.70171031  0.04125475  0.84440662    -0.13000
F618        F  0.70315679  0.04318501  0.90597426    -0.15300
F619        F  0.60000936  0.94844315  0.84762691    -0.15300
F620        F  0.60130460  0.95046356  0.90910332    -0.13000
C621        C  0.65079789  0.96177480  0.61060789     0.25000
C622        C  0.65138383  0.99694308  0.59476122    -0.23100
C623        C  0.65260085  0.03132224  0.61147076     0.19900
C624        C  0.65270485  0.03059236  0.64304929     0.25000
C625        C  0.65153834  0.99544560  0.65889623    -0.23000
C626        C  0.65088431  0.96104767  0.64219516     0.19900
F627        F  0.65013968  0.92640920  0.65628558    -0.13000
F628        F  0.65005401  0.92774186  0.59567772    -0.15300
F629        F  0.65408851  0.06460909  0.65797530    -0.15300
F630        F  0.65379650  0.06595998  0.59739953    -0.13000
C631        C  0.78897816  0.01913813  0.52570997     0.25000
C632        C  0.76979033  0.99502805  0.00528156    -0.23100
C633        C  0.79138016  0.97011591  0.98694986     0.19900
C634        C  0.83156797  0.97033907  0.98838571     0.25000
C635        C  0.85069134  0.99479154  0.00871415    -0.23000
C636        C  0.82911528  0.01867928  0.52764871     0.19900
F637        F  0.84692739  0.04189232  0.54791897    -0.13000
F638        F  0.76869849  0.04281335  0.54419857    -0.15300
F639        F  0.85192079  0.94731239  0.96945020    -0.15300
F640        F  0.77361629  0.94663840  0.96684716    -0.13000
C641        C  0.02072168  0.51881056  0.75861419     0.25000
C642        C  0.98739945  0.53945256  0.75031096    -0.23100
C643        C  0.95387904  0.51878625  0.74289670     0.19900
C644        C  0.95385118  0.47862156  0.74330292     0.25000
C645        C  0.98734248  0.45797436  0.75113297    -0.23000
C646        C  0.02068823  0.47864175  0.75902925     0.19900
F647        F  0.05330085  0.46009607  0.76771789    -0.13000
F648        F  0.05337585  0.53739468  0.76691553    -0.15300
F649        F  0.92103790  0.46005104  0.73539360    -0.15300
F650        F  0.92108228  0.53731637  0.73464147    -0.13000
C651        C  0.01504262  0.79644418  0.73053688     0.25000
C652        C  0.98897347  0.77631337  0.74892844    -0.23100
C653        C  0.96355006  0.79697784  0.76755205     0.19900
C654        C  0.96465268  0.83711257  0.76817155     0.25000
C655        C  0.99042983  0.85733644  0.74951966    -0.23000
C656        C  0.01537121  0.83659855  0.73049242     0.19900
F657        F  0.03970749  0.85529288  0.71154366    -0.13000
F658        F  0.03941394  0.77722166  0.71189759    -0.15300
F659        F  0.94068305  0.85630412  0.78714900    -0.15300
F660        F  0.93838294  0.77826583  0.78581294    -0.13000
C661        C  0.02004823  0.51674006  0.99171365     0.25000
C662        C  0.98629952  0.53779094  0.99802485    -0.23100
C663        C  0.95233196  0.51737399  0.50409749     0.19900
C664        C  0.95209910  0.47719340  0.50446491     0.25000
C665        C  0.98576900  0.45627733  0.99862347    -0.23000
C666        C  0.01978602  0.47659742  0.99200985     0.19900
F667        F  0.05297276  0.45773979  0.98536057    -0.13000
F668        F  0.05348369  0.53486285  0.98482078    -0.15300
F669        F  0.91856624  0.45901343  0.51095340    -0.15300
F670        F  0.91900684  0.53624846  0.51025608    -0.13000
C671        C  0.02259585  0.66522045  0.88987971     0.25000
C672        C  0.98853594  0.65748761  0.90602757    -0.23100
C673        C  0.95452502  0.64991407  0.88976186     0.19900
C674        C  0.95455039  0.65012434  0.85821924     0.25000
C675        C  0.98858783  0.65792350  0.84205515    -0.23000
C676        C  0.02262750  0.66541646  0.85830860     0.19900
F677        F  0.05606432  0.67350768  0.84377314    -0.13000
F678        F  0.05598703  0.67320152  0.90452938    -0.15300
F679        F  0.92113649  0.64206309  0.84362049    -0.15300
F680        F  0.92109725  0.64165605  0.90425797    -0.13000
C681        C  0.95466496  0.64541648  0.60828943     0.25000
C682        C  0.98763779  0.65670256  0.59209686    -0.23100
C683        C  0.02024994  0.66918015  0.60819860     0.19900
C684        C  0.02001983  0.67001668  0.63974958     0.25000
C685        C  0.98722925  0.65825343  0.65596277    -0.23000
C686        C  0.95443656  0.64624650  0.63985673     0.19900
F687        F  0.92228377  0.63443077  0.65458856    -0.13000
F688        F  0.92277721  0.63270548  0.59365898    -0.15300
F689        F  0.05173122  0.68321702  0.65435112    -0.15300
F690        F  0.05222411  0.68148109  0.59346559    -0.13000
C691        C  0.96213880  0.79624865  0.98486732     0.25000
C692        C  0.99018703  0.77482601  0.00048207    -0.23100
C693        C  0.01918079  0.79428608  0.51661755     0.19900
C694        C  0.01949293  0.83443370  0.51757479     0.25000
C695        C  0.99136797  0.85593099  0.00200090    -0.23000
C696        C  0.96310680  0.83638683  0.98520754     0.19900
F697        F  0.93643236  0.85624087  0.96903462    -0.13000
F698        F  0.93426396  0.77834189  0.96865553    -0.15300
F699        F  0.04662702  0.85247289  0.53445212    -0.15300
F700        F  0.04630630  0.77452447  0.53238806    -0.13000
C701        C  0.46945685  0.95944152  0.75110666     0.25000
C702        C  0.44913724  0.99399541  0.74621360    -0.23100
C703        C  0.47026605  0.02807973  0.74209408     0.19900
C704        C  0.51042163  0.02783913  0.74353735     0.25000
C705        C  0.53075272  0.99348543  0.74903639    -0.23000
C706        C  0.50971693  0.95918820  0.75247286     0.19900
F707        F  0.52791732  0.92525487  0.75759881    -0.13000
F708        F  0.45051787  0.92574675  0.75504860    -0.15300
F709        F  0.52927993  0.06149050  0.73917887    -0.15300
F710        F  0.45223055  0.06196180  0.73644153    -0.13000
C711        C  0.19138329  0.97512592  0.72739163     0.25000
C712        C  0.21186243  0.99937388  0.74699360    -0.23100
C713        C  0.19150475  0.02389818  0.76652475     0.19900
C714        C  0.15121922  0.02356734  0.76687429     0.25000
C715        C  0.13073427  0.99931707  0.74724147    -0.23000
C716        C  0.15114828  0.97543695  0.72725437     0.19900
F717        F  0.13201817  0.95257415  0.70748656    -0.13000
F718        F  0.21039634  0.95182480  0.70781885    -0.15300
F719        F  0.13212825  0.04646838  0.78668961    -0.15300
F720        F  0.21063832  0.04720419  0.78596417    -0.13000
C721        C  0.51264392  0.03598916  0.49376803     0.25000
C722        C  0.53298385  0.00164668  0.49953127    -0.23100
C723        C  0.51174955  0.96743636  0.00302887     0.19900
C724        C  0.47160297  0.96777612  0.00222943     0.25000
C725        C  0.45127739  0.00227771  0.49800314    -0.23000
C726        C  0.47229906  0.03630201  0.49302118     0.19900
F727        F  0.45399169  0.06994435  0.48700385    -0.13000
F728        F  0.53163943  0.06936099  0.48848857    -0.15300
F729        F  0.45290743  0.93393324  0.00604256    -0.15300
F730        F  0.52976869  0.93331501  0.00772071    -0.13000
C731        C  0.33564054  0.03411640  0.85555792     0.25000
C732        C  0.33297442  0.99899149  0.83982164    -0.23100
C733        C  0.33143501  0.96467170  0.85660718     0.19900
C734        C  0.33159056  0.96543847  0.88814595     0.25000
C735        C  0.33342079  0.00056106  0.90391031    -0.23000
C736        C  0.33580809  0.03488367  0.88715722     0.19900
F737        F  0.33844234  0.06942797  0.90120362    -0.13000
F738        F  0.33819727  0.06801306  0.84051063    -0.15300
F739        F  0.32966983  0.93144820  0.90311520    -0.15300
F740        F  0.32963038  0.93002297  0.84265099    -0.13000
C741        C  0.31061936  0.96852581  0.63702186     0.25000
C742        C  0.33072326  0.99634137  0.65371164    -0.23100
C743        C  0.35173357  0.02473722  0.63828496     0.19900
C744        C  0.35210486  0.02573500  0.60672023     0.25000
C745        C  0.33157309  0.99828203  0.59002701    -0.23000
C746        C  0.31107120  0.96947477  0.60542679     0.19900
F747        F  0.29051733  0.94287965  0.58988439    -0.13000
F748        F  0.28955995  0.94113997  0.65125681    -0.15300
F749        F  0.37356188  0.05280260  0.59248271    -0.15300
F750        F  0.37287997  0.05090208  0.65378778    -0.13000
C751        C  0.15221956  0.02396085  0.97872647     0.25000
C752        C  0.13210125  0.99703664  0.99642561    -0.23100
C753        C  0.15332895  0.96993877  0.51363287     0.19900
C754        C  0.19360051  0.97002923  0.51314237     0.25000
C755        C  0.21347627  0.99802924  0.99620355    -0.23000
C756        C  0.19249692  0.02493196  0.97909270     0.19900
F757        F  0.21101992  0.05167547  0.96217831    -0.13000
F758        F  0.13280258  0.04943553  0.96112702    -0.15300
F759        F  0.21300695  0.94373306  0.52998694    -0.15300
F760        F  0.13486645  0.94384657  0.53121363    -0.13000
loop_ 
_geom_bond_atom_site_label_1 
_geom_bond_atom_site_label_2 
_geom_bond_distance 
_geom_bond_site_symmetry_2 
_ccdc_geom_bond_type 
O1           C11   1.275       .  A
O1         Cu389   1.993   1_554  S
O2           C12   1.276   1_565  A
O2           Cu9   1.995       .  S
O3          C393   1.278   1_565  A
O3           Cu9   2.005       .  S
O4          C394   1.277       .  A
O4         Cu389   2.005       .  S
O5          C394   1.279   1_545  A
O5          Cu10   2.016       .  S
O6          C393   1.278       .  A
O6         Cu390   2.012       .  S
O7           C12   1.278       .  A
O7         Cu390   2.010       .  S
O8           C11   1.279   1_545  A
O8          Cu10   2.015   1_554  S
Cu9         O381   1.993       .  S
Cu9         O384   2.006       .  S
Cu9        Cu390   2.370   1_565  S
Cu10        O386   2.012       .  S
Cu10        O387   2.010       .  S
Cu10       Cu389   2.369   1_545  S
C11         C365   1.474       .  S
C12         C355   1.486       .  S
C13         O383   1.278   1_545  A
C13         O386   1.278       .  A
C13         C345   1.489       .  S
C14         O384   1.277       .  A
C14         O385   1.279   1_565  A
C14         C375   1.478       .  S
O15          C25   1.278   1_545  A
O15         Cu23   2.012       .  S
O16          C26   1.278   1_545  A
O16         Cu23   2.004       .  S
O17          C27   1.277   1_545  A
O17         Cu23   1.999       .  S
O18          C28   1.276   1_545  A
O18         Cu23   1.995       .  S
O19          C28   1.279       .  A
O19         Cu24   2.012       .  S
O20          C27   1.278       .  A
O20         Cu24   2.008       .  S
O21          C26   1.278       .  A
O21         Cu24   2.008       .  S
O22          C25   1.277       .  A
O22         Cu24   2.005       .  S
Cu23        Cu24   2.370   1_545  S
C25         C332   1.473       .  S
C26         C322   1.487       .  S
C27         C362   1.474       .  S
C28         C352   1.486       .  S
O29          C39   1.277   1_455  A
O29        Cu417   2.000   1_554  S
O30          C40   1.278   1_455  A
O30         Cu37   2.003       .  S
O31          C41   1.278   1_455  A
O31         Cu37   2.007       .  S
O32         C422   1.278   1_455  A
O32        Cu417   2.009       .  S
O33         C422   1.278       .  A
O33         Cu38   2.010       .  S
O34          C41   1.278       .  A
O34        Cu418   2.011       .  S
O35          C40   1.277       .  A
O35        Cu418   1.997       .  S
O36          C39   1.277       .  A
O36         Cu38   2.002   1_554  S
Cu37        O409   2.000       .  S
Cu37        O412   2.009       .  S
Cu37       Cu418   2.369   1_455  S
Cu38        O414   2.011       .  S
Cu38        O415   1.998       .  S
Cu38       Cu417   2.369   1_655  S
C39         C302   1.479       .  S
C40         C292   1.482       .  S
C41         C312   1.479       .  S
C42         O412   1.278   1_655  A
C42         O413   1.278       .  A
C42         C282   1.489       .  S
O43          C53   1.278   1_455  A
O43         Cu51   2.004       .  S
O44          C54   1.277   1_455  A
O44         Cu51   2.001       .  S
O45          C55   1.277   1_455  A
O45         Cu51   2.006       .  S
O46          C56   1.278   1_455  A
O46         Cu51   2.010       .  S
O47          C56   1.278       .  A
O47         Cu52   2.011       .  S
O48          C55   1.278       .  A
O48         Cu52   2.011       .  S
O49          C54   1.277       .  A
O49         Cu52   2.003       .  S
O50          C53   1.277       .  A
O50         Cu52   1.995       .  S
Cu51        Cu52   2.369   1_455  S
C53         C295   1.482       .  S
C54         C305   1.480       .  S
C55         C272   1.475       .  S
C56         C262   1.488       .  S
O57          C67   1.279   1_545  A
O57        Cu445   2.011       .  S
O58          C68   1.279   1_545  A
O58         Cu65   2.017       .  S
O59         C449   1.278       .  A
O59         Cu65   2.011       .  S
O60         C450   1.277   1_545  A
O60        Cu445   2.000       .  S
O61         C450   1.278       .  A
O61         Cu66   2.008       .  S
O62         C449   1.278   1_565  A
O62        Cu446   2.003       .  S
O63          C68   1.275       .  A
O63        Cu446   1.994       .  S
O64          C67   1.276       .  A
O64         Cu66   1.998       .  S
Cu65        O437   2.011       .  S
Cu65        O440   2.000       .  S
Cu65       Cu446   2.370   1_545  S
Cu66        O442   2.003       .  S
Cu66        O443   1.994   1_554  S
Cu66       Cu445   2.369   1_565  S
C67         C242   1.487       .  S
C68         C232   1.472       .  S
C69         O439   1.278   1_554  A
C69         O442   1.278   1_545  A
C69         C342   1.488   1_554  S
C70         O440   1.277   1_565  A
C70         O441   1.278       .  A
C70         C252   1.471       .  S
O71          C81   1.276   1_545  A
O71         Cu79   2.001       .  S
O72          C82   1.276   1_545  A
O72         Cu79   1.995       .  S
O73          C83   1.278   1_545  A
O73         Cu79   2.006       .  S
O74          C84   1.277   1_545  A
O74         Cu79   1.998       .  S
O75          C84   1.278       .  A
O75         Cu80   2.008       .  S
O76          C83   1.277       .  A
O76         Cu80   2.007       .  S
O77          C82   1.279       .  A
O77         Cu80   2.014       .  S
O78          C81   1.278       .  A
O78         Cu80   2.011       .  S
Cu79        Cu80   2.370   1_545  S
C81         C235   1.471       .  S
C82         C245   1.487       .  S
C83         C325   1.487       .  S
C84         C222   1.472       .  S
N85          C90   1.351       .  A
N85          C89   1.352       .  A
N85         H117   1.043       .  S
N86          C93   1.352       .  A
N86          C94   1.351       .  A
N87          C92   1.353       .  A
N87          C91   1.351       .  A
N87         H118   1.043       .  S
N88          C95   1.348       .  A
N88          C96   1.349       .  A
C89          C97   1.387       .  A
C89         C105   1.413       .  A
C90         C106   1.414   1_545  A
C90          C98   1.387       .  A
C91          C99   1.387       .  A
C91         C108   1.415       .  A
C92         C107   1.416   1_455  A
C92         C100   1.387       .  A
C93         C105   1.413   1_455  A
C93         C101   1.385       .  A
C94         C108   1.415   1_545  A
C94         C102   1.387       .  A
C95         C103   1.386       .  A
C95         C106   1.409       .  A
C96         C104   1.387       .  A
C96         C107   1.411       .  A
C97          C98   1.377       .  A
C97         H109   1.082       .  S
C98         H110   1.082       .  S
C99         C100   1.379       .  A
C99         H111   1.082       .  S
C100        H112   1.082       .  S
C101        C102   1.375       .  A
C101        H113   1.082       .  S
C102        H114   1.082       .  S
C103        C104   1.374       .  A
C103        H115   1.082       .  S
C104        H116   1.082       .  S
C105        C212   1.493       .  S
C106        C255   1.486       .  S
C107        C315   1.492       .  S
C108        C372   1.494       .  S
N119        C124   1.352       .  A
N119        C123   1.351       .  A
N119        H151   1.042       .  S
N120        C127   1.350       .  A
N120        C128   1.351       .  A
N121        C126   1.352       .  A
N121        C125   1.353       .  A
N121        H152   1.041       .  S
N122        C129   1.351       .  A
N122        C130   1.350       .  A
C123        C131   1.387       .  A
C123        C139   1.413       .  A
C124        C140   1.413       .  A
C124        C132   1.387       .  A
C125        C133   1.387       .  A
C125        C142   1.415   1_455  A
C126        C141   1.414   1_545  A
C126        C134   1.387       .  A
C127        C139   1.412   1_545  A
C127        C135   1.386       .  A
C128        C142   1.412       .  A
C128        C136   1.386       .  A
C129        C137   1.386       .  A
C129        C140   1.412   1_455  A
C130        C138   1.387       .  A
C130        C141   1.412       .  A
C131        C132   1.377       .  A
C131        H143   1.082       .  S
C132        H144   1.082       .  S
C133        C134   1.378       .  A
C133        H145   1.082       .  S
C134        H146   1.082       .  S
C135        C136   1.374       .  A
C135        H147   1.082       .  S
C136        H148   1.082       .  S
C137        C138   1.375       .  A
C137        H149   1.082       .  S
C138        H150   1.082       .  S
C139        C225   1.489       .  S
C140        C275   1.492       .  S
C141        C335   1.488       .  S
C142        C202   1.493       .  S
O153        C163   1.277   1_455  A
O153       Cu541   1.998   1_554  S
O154        C164   1.276   1_455  A
O154       Cu161   1.990       .  S
O155        C165   1.278   1_455  A
O155       Cu161   2.007       .  S
O156        C166   1.278   1_455  A
O156       Cu161   2.010       .  S
O157        C166   1.278       .  A
O157       Cu542   2.016       .  S
O158        C165   1.278       .  A
O158       Cu542   2.012       .  S
O159        C164   1.278       .  A
O159       Cu542   2.007       .  S
O160        C163   1.277       .  A
O160       Cu162   2.000       .  S
Cu161       O533   1.998       .  S
Cu161      Cu542   2.368   1_455  S
Cu162       O537   2.016       .  S
Cu162       O538   2.011   1_554  S
Cu162       O539   2.007   1_554  S
Cu162      Cu541   2.369   1_654  S
C163        C192   1.483       .  S
C164        C182   1.481       .  S
C165        C285   1.488       .  S
C166        C215   1.477       .  S
O167        C177   1.277   1_455  A
O167       Cu175   1.998       .  S
O168        C178   1.278   1_455  A
O168       Cu175   2.005       .  S
O169        C179   1.278   1_455  A
O169       Cu175   2.010       .  S
O170        C180   1.278   1_455  A
O170       Cu175   2.013       .  S
O171        C180   1.278       .  A
O171       Cu176   2.014       .  S
O172        C179   1.278       .  A
O172       Cu176   2.011       .  S
O173        C178   1.276       .  A
O173       Cu176   1.992       .  S
O174        C177   1.277       .  A
O174       Cu176   2.000       .  S
Cu175      Cu176   2.368   1_455  S
C177        C185   1.482       .  S
C178        C195   1.483       .  S
C179        C265   1.488       .  S
C180        C205   1.479       .  S
C181        C182   1.408       .  A
C181        C186   1.398       .  A
C181        F188   1.358       .  S
C182        C183   1.409   1_655  A
C183        C184   1.394       .  A
C183        F190   1.358       .  S
C184        C185   1.408   1_455  A
C184        F189   1.358       .  S
C185        C186   1.410       .  A
C186        F187   1.358       .  S
C191        C192   1.410   1_455  A
C191        C196   1.397       .  A
C191        F198   1.358       .  S
C192        C193   1.408       .  A
C193        C194   1.394       .  A
C193        F200   1.358       .  S
C194        C195   1.410       .  A
C194        F199   1.358       .  S
C195        C196   1.409   1_655  A
C196        F197   1.358       .  S
C201        C202   1.407   1_455  A
C201        C206   1.399       .  A
C201        F208   1.358       .  S
C202        C203   1.407       .  A
C203        C204   1.401       .  A
C203        F210   1.358       .  S
C204        C205   1.407       .  A
C204        F209   1.358       .  S
C205        C206   1.406   1_655  A
C206        F207   1.358       .  S
C211        C216   1.400       .  A
C211        C592   1.408       .  A
C211        F218   1.358       .  S
C212        C213   1.407   1_655  A
C212        C591   1.408       .  A
C213        C214   1.400       .  A
C213        F220   1.358       .  S
C214        C215   1.405   1_455  A
C214        F219   1.358       .  S
C215        C596   1.406       .  A
C216        C595   1.406       .  A
C216        F217   1.358       .  S
C221        C222   1.405       .  A
C221        C226   1.398       .  A
C221        F228   1.358       .  S
C222        C223   1.405   1_565  A
C223        C224   1.396       .  A
C223        F230   1.358       .  S
C224        C225   1.406   1_545  A
C224        F229   1.358       .  S
C225        C226   1.408       .  A
C226        F227   1.358       .  S
C231        C232   1.404   1_545  A
C231        C236   1.399       .  A
C231        F238   1.358       .  S
C232        C233   1.407       .  A
C233        C234   1.398       .  A
C233        F240   1.358       .  S
C234        C235   1.404       .  A
C234        F239   1.358       .  S
C235        C236   1.406   1_565  A
C236        F237   1.358       .  S
C241        C242   1.411       .  A
C241        C246   1.398       .  A
C241        F248   1.358       .  S
C242        C243   1.409   1_565  A
C243        C244   1.397       .  A
C243        F250   1.358       .  S
C244        C245   1.411   1_545  A
C244        F249   1.358       .  S
C245        C246   1.408       .  A
C246        F247   1.358       .  S
C251        C256   1.397       .  A
C251        C632   1.406   1_545  A
C251        F258   1.358       .  S
C252        C253   1.404       .  A
C252        C631   1.406   1_565  A
C253        C254   1.398       .  A
C253        F260   1.358       .  S
C254        C255   1.407       .  A
C254        F259   1.358       .  S
C255        C636   1.405   1_565  A
C256        C635   1.405   1_545  A
C256        F257   1.358       .  S
C261        C262   1.410   1_455  A
C261        C266   1.400       .  A
C261        F268   1.358       .  S
C262        C263   1.409       .  A
C263        C264   1.399       .  A
C263        F270   1.358       .  S
C264        C265   1.409       .  A
C264        F269   1.358       .  S
C265        C266   1.409   1_655  A
C266        F267   1.358       .  S
C271        C272   1.406   1_455  A
C271        C276   1.399       .  A
C271        F278   1.358       .  S
C272        C273   1.406       .  A
C273        C274   1.399       .  A
C273        F280   1.358       .  S
C274        C275   1.408       .  A
C274        F279   1.358       .  S
C275        C276   1.407   1_655  A
C276        F277   1.358       .  S
C281        C282   1.410   1_455  A
C281        C286   1.399       .  A
C281        F288   1.358       .  S
C282        C663   1.410       .  A
C283        C284   1.400       .  A
C283        C662   1.410   1_554  A
C283        F290   1.358       .  S
C284        C665   1.409   1_554  A
C284        F289   1.358       .  S
C285        C286   1.410   1_655  A
C285        C664   1.410       .  A
C286        F287   1.358       .  S
C291        C292   1.409   1_455  A
C291        C296   1.397       .  A
C291        F298   1.358       .  S
C292        C293   1.409       .  A
C293        C294   1.395       .  A
C293        F300   1.358       .  S
C294        C295   1.409       .  A
C294        F299   1.358       .  S
C295        C296   1.409   1_655  A
C296        F297   1.358       .  S
C301        C302   1.408       .  A
C301        C306   1.397       .  A
C301        F308   1.358       .  S
C302        C303   1.408   1_655  A
C303        C304   1.396       .  A
C303        F310   1.358       .  S
C304        C305   1.408   1_455  A
C304        F309   1.358       .  S
C305        C306   1.408       .  A
C306        F307   1.358       .  S
C311        C312   1.406       .  A
C311        C316   1.399       .  A
C311        F318   1.358       .  S
C312        C693   1.407   1_655  A
C313        C314   1.399       .  A
C313        C692   1.408   1_455  A
C313        F320   1.358       .  S
C314        C695   1.406   1_455  A
C314        F319   1.358       .  S
C315        C316   1.408       .  A
C315        C694   1.406   1_655  A
C316        F317   1.358       .  S
C321        C322   1.410       .  A
C321        C326   1.400       .  A
C321        F328   1.358       .  S
C322        C323   1.409   1_565  A
C323        C324   1.396       .  A
C323        F330   1.358       .  S
C324        C325   1.409   1_545  A
C324        F329   1.358       .  S
C325        C326   1.410       .  A
C326        F327   1.358       .  S
C331        C332   1.405       .  A
C331        C336   1.398       .  A
C331        F338   1.358       .  S
C332        C333   1.406   1_565  A
C333        C334   1.400       .  A
C333        F340   1.358       .  S
C334        C335   1.406   1_545  A
C334        F339   1.358       .  S
C335        C336   1.406       .  A
C336        F337   1.358       .  S
C341        C342   1.411       .  A
C341        C346   1.402       .  A
C341        F348   1.358       .  S
C342        C723   1.409   1_546  A
C343        C344   1.395       .  A
C343        C722   1.409   1_565  A
C343        F350   1.358       .  S
C344        C725   1.409   1_565  A
C344        F349   1.358       .  S
C345        C346   1.411       .  A
C345        C724   1.409   1_546  A
C346        F347   1.358       .  S
C351        C352   1.411   1_545  A
C351        C356   1.398       .  A
C351        F358   1.358       .  S
C352        C353   1.408       .  A
C353        C354   1.396       .  A
C353        F360   1.358       .  S
C354        C355   1.410   1_565  A
C354        F359   1.358       .  S
C355        C356   1.409       .  A
C356        F357   1.358       .  S
C361        C362   1.406       .  A
C361        C366   1.398       .  A
C361        F368   1.358       .  S
C362        C363   1.407   1_565  A
C363        C364   1.397       .  A
C363        F370   1.358       .  S
C364        C365   1.404   1_545  A
C364        F369   1.358       .  S
C365        C366   1.407       .  A
C366        F367   1.358       .  S
C371        C372   1.408   1_545  A
C371        C376   1.400       .  A
C371        F378   1.358       .  S
C372        C753   1.408       .  A
C373        C374   1.399       .  A
C373        C752   1.408   1_554  A
C373        F380   1.358       .  S
C374        C755   1.406   1_554  A
C374        F379   1.358       .  S
C375        C376   1.406   1_565  A
C375        C754   1.406       .  A
C376        F377   1.358       .  S
O381        C391   1.275       .  A
O382        C392   1.276   1_565  A
O382       Cu389   1.994       .  S
O383       Cu389   2.004       .  S
O385       Cu390   2.016       .  S
O387        C392   1.278       .  A
O388        C391   1.279   1_545  A
O388       Cu390   2.016       .  S
C391        C745   1.474       .  S
C392        C735   1.486       .  S
C393        C725   1.488       .  S
C394        C755   1.478       .  S
O395        C405   1.278   1_545  A
O395       Cu403   2.012       .  S
O396        C406   1.278   1_545  A
O396       Cu403   2.004       .  S
O397        C407   1.277   1_545  A
O397       Cu403   1.999       .  S
O398        C408   1.276   1_545  A
O398       Cu403   1.995       .  S
O399        C408   1.279       .  A
O399       Cu404   2.012       .  S
O400        C407   1.278       .  A
O400       Cu404   2.008       .  S
O401        C406   1.278       .  A
O401       Cu404   2.008       .  S
O402        C405   1.277       .  A
O402       Cu404   2.005       .  S
Cu403      Cu404   2.370   1_545  S
C405        C712   1.473       .  S
C406        C702   1.487       .  S
C407        C742   1.474       .  S
C408        C732   1.486       .  S
O409        C419   1.277   1_455  A
O410        C420   1.277   1_455  A
O410       Cu417   2.003       .  S
O411        C421   1.278   1_454  A
O411       Cu417   2.008   1_554  S
O413       Cu418   2.011       .  S
O414        C421   1.278       .  A
O415        C420   1.277       .  A
O416        C419   1.277       .  A
O416       Cu418   2.001       .  S
C419        C682   1.479       .  S
C420        C672   1.482       .  S
C421        C692   1.479   1_556  S
C422        C662   1.488       .  S
O423        C433   1.278   1_455  A
O423       Cu431   2.003       .  S
O424        C434   1.277   1_455  A
O424       Cu431   2.000       .  S
O425        C435   1.277   1_455  A
O425       Cu431   2.007       .  S
O426        C436   1.278   1_455  A
O426       Cu431   2.009       .  S
O427        C436   1.278       .  A
O427       Cu432   2.011       .  S
O428        C435   1.278       .  A
O428       Cu432   2.011       .  S
O429        C434   1.277       .  A
O429       Cu432   2.003       .  S
O430        C433   1.277       .  A
O430       Cu432   1.996       .  S
Cu431      Cu432   2.369   1_455  S
C433        C675   1.482       .  S
C434        C685   1.480       .  S
C435        C652   1.475       .  S
C436        C642   1.487       .  S
O437        C447   1.279   1_545  A
O438        C448   1.279   1_545  A
O438       Cu445   2.017   1_556  S
O439       Cu445   2.010   1_556  S
O441       Cu446   2.008       .  S
O443        C448   1.275       .  A
O444        C447   1.276       .  A
O444       Cu446   1.998       .  S
C447        C622   1.487       .  S
C448        C612   1.472       .  S
C449        C722   1.488       .  S
C450        C632   1.471       .  S
O451        C461   1.276   1_545  A
O451       Cu459   2.001       .  S
O452        C462   1.276   1_545  A
O452       Cu459   1.995       .  S
O453        C463   1.278   1_545  A
O453       Cu459   2.006       .  S
O454        C464   1.277   1_545  A
O454       Cu459   1.997       .  S
O455        C464   1.278       .  A
O455       Cu460   2.008       .  S
O456        C463   1.278       .  A
O456       Cu460   2.007       .  S
O457        C462   1.279       .  A
O457       Cu460   2.013       .  S
O458        C461   1.278       .  A
O458       Cu460   2.010       .  S
Cu459      Cu460   2.370   1_545  S
C461        C615   1.471       .  S
C462        C625   1.487       .  S
C463        C705   1.487       .  S
C464        C602   1.472       .  S
N465        C470   1.351       .  A
N465        C469   1.352   1_554  A
N465        H497   1.043       .  S
N466        C473   1.352       .  A
N466        C474   1.351       .  A
N467        C472   1.353   1_554  A
N467        C471   1.351   1_554  A
N467        H498   1.043       .  S
N468        C475   1.348       .  A
N468        C476   1.349       .  A
C469        C477   1.387       .  A
C469        C485   1.413   1_556  A
C470        C486   1.413   1_545  A
C470        C478   1.387   1_554  A
C471        C479   1.387       .  A
C471        C488   1.415       .  A
C472        C487   1.416   1_456  A
C472        C480   1.387       .  A
C473        C485   1.413   1_455  A
C473        C481   1.385       .  A
C474        C488   1.415   1_544  A
C474        C482   1.387       .  A
C475        C483   1.386       .  A
C475        C486   1.409       .  A
C476        C484   1.387       .  A
C476        C487   1.411       .  A
C477        C478   1.377       .  A
C477        H489   1.082       .  S
C478        H490   1.082       .  S
C479        C480   1.379       .  A
C479        H491   1.082       .  S
C480        H492   1.082       .  S
C481        C482   1.375       .  A
C481        H493   1.082       .  S
C482        H494   1.082       .  S
C483        C484   1.374       .  A
C483        H495   1.082       .  S
C484        H496   1.082       .  S
C485        C592   1.493       .  S
C486        C635   1.486       .  S
C487        C695   1.493       .  S
C488        C752   1.494       .  S
N499        C504   1.352       .  A
N499        C503   1.351       .  A
N499        H531   1.041       .  S
N500        C507   1.350       .  A
N500        C508   1.351       .  A
N501        C506   1.352       .  A
N501        C505   1.353       .  A
N501        H532   1.041       .  S
N502        C509   1.351       .  A
N502        C510   1.350       .  A
C503        C511   1.387       .  A
C503        C519   1.413       .  A
C504        C520   1.413       .  A
C504        C512   1.387       .  A
C505        C513   1.387       .  A
C505        C522   1.415   1_455  A
C506        C521   1.414   1_545  A
C506        C514   1.387       .  A
C507        C519   1.412   1_545  A
C507        C515   1.386       .  A
C508        C522   1.412       .  A
C508        C516   1.386       .  A
C509        C517   1.386       .  A
C509        C520   1.412   1_455  A
C510        C518   1.387       .  A
C510        C521   1.413       .  A
C511        C512   1.377       .  A
C511        H523   1.082       .  S
C512        H524   1.082       .  S
C513        C514   1.378       .  A
C513        H525   1.082       .  S
C514        H526   1.082       .  S
C515        C516   1.374       .  A
C515        H527   1.082       .  S
C516        H528   1.082       .  S
C517        C518   1.375       .  A
C517        H529   1.082       .  S
C518        H530   1.082       .  S
C519        C605   1.489       .  S
C520        C655   1.492       .  S
C521        C715   1.488       .  S
C522        C582   1.493       .  S
O533        C543   1.277   1_455  A
O534        C544   1.276   1_455  A
O534       Cu541   1.990       .  S
O535        C545   1.278   1_455  A
O535       Cu541   2.007       .  S
O536        C546   1.278   1_456  A
O536       Cu541   2.010       .  S
O537        C546   1.278       .  A
O538        C545   1.278       .  A
O539        C544   1.278       .  A
O540        C543   1.277       .  A
O540       Cu542   2.000       .  S
C543        C572   1.483       .  S
C544        C562   1.479       .  S
C545        C665   1.488       .  S
C546        C595   1.477       .  S
O547        C557   1.277   1_455  A
O547       Cu555   1.998       .  S
O548        C558   1.278   1_455  A
O548       Cu555   2.005       .  S
O549        C559   1.278   1_455  A
O549       Cu555   2.010       .  S
O550        C560   1.278   1_455  A
O550       Cu555   2.012       .  S
O551        C560   1.278       .  A
O551       Cu556   2.014       .  S
O552        C559   1.278       .  A
O552       Cu556   2.010       .  S
O553        C558   1.276       .  A
O553       Cu556   1.992       .  S
O554        C557   1.277       .  A
O554       Cu556   2.001       .  S
Cu555      Cu556   2.369   1_455  S
C557        C565   1.479       .  S
C558        C575   1.483       .  S
C559        C645   1.487       .  S
C560        C585   1.478       .  S
C561        C562   1.408       .  A
C561        C566   1.398       .  A
C561        F568   1.358       .  S
C562        C563   1.408   1_655  A
C563        C564   1.394       .  A
C563        F570   1.358       .  S
C564        C565   1.407   1_455  A
C564        F569   1.358       .  S
C565        C566   1.409       .  A
C566        F567   1.358       .  S
C571        C572   1.410   1_455  A
C571        C576   1.397       .  A
C571        F578   1.358       .  S
C572        C573   1.409       .  A
C573        C574   1.394       .  A
C573        F580   1.358       .  S
C574        C575   1.410       .  A
C574        F579   1.358       .  S
C575        C576   1.409   1_655  A
C576        F577   1.358       .  S
C581        C582   1.407   1_455  A
C581        C586   1.399       .  A
C581        F588   1.358       .  S
C582        C583   1.407       .  A
C583        C584   1.401       .  A
C583        F590   1.358       .  S
C584        C585   1.407       .  A
C584        F589   1.358       .  S
C585        C586   1.406   1_655  A
C586        F587   1.358       .  S
C591        C596   1.401       .  A
C591        F598   1.358       .  S
C592        C593   1.407   1_654  A
C593        C594   1.400       .  A
C593        F600   1.358       .  S
C594        C595   1.405   1_456  A
C594        F599   1.358       .  S
C596        F597   1.358       .  S
C601        C602   1.405       .  A
C601        C606   1.398       .  A
C601        F608   1.358       .  S
C602        C603   1.405   1_565  A
C603        C604   1.396       .  A
C603        F610   1.358       .  S
C604        C605   1.406   1_545  A
C604        F609   1.358       .  S
C605        C606   1.408       .  A
C606        F607   1.358       .  S
C611        C612   1.404   1_545  A
C611        C616   1.399       .  A
C611        F618   1.358       .  S
C612        C613   1.407       .  A
C613        C614   1.398       .  A
C613        F620   1.358       .  S
C614        C615   1.404       .  A
C614        F619   1.358       .  S
C615        C616   1.406   1_565  A
C616        F617   1.358       .  S
C621        C622   1.411       .  A
C621        C626   1.398       .  A
C621        F628   1.358       .  S
C622        C623   1.409   1_565  A
C623        C624   1.397       .  A
C623        F630   1.358       .  S
C624        C625   1.411   1_545  A
C624        F629   1.358       .  S
C625        C626   1.408       .  A
C626        F627   1.358       .  S
C631        C636   1.397       .  A
C631        F638   1.358       .  S
C632        C633   1.404   1_554  A
C633        C634   1.397       .  A
C633        F640   1.358       .  S
C634        C635   1.407   1_556  A
C634        F639   1.358       .  S
C636        F637   1.358       .  S
C641        C642   1.410   1_455  A
C641        C646   1.399       .  A
C641        F648   1.358       .  S
C642        C643   1.409       .  A
C643        C644   1.399       .  A
C643        F650   1.358       .  S
C644        C645   1.409       .  A
C644        F649   1.358       .  S
C645        C646   1.409   1_655  A
C646        F647   1.358       .  S
C651        C652   1.406   1_455  A
C651        C656   1.399       .  A
C651        F658   1.358       .  S
C652        C653   1.406       .  A
C653        C654   1.399       .  A
C653        F660   1.358       .  S
C654        C655   1.408       .  A
C654        F659   1.358       .  S
C655        C656   1.407   1_655  A
C656        F657   1.358       .  S
C661        C662   1.409   1_455  A
C661        C666   1.398       .  A
C661        F668   1.358       .  S
C663        C664   1.400       .  A
C663        F670   1.358       .  S
C664        F669   1.358       .  S
C665        C666   1.410   1_655  A
C666        F667   1.358       .  S
C671        C672   1.409   1_455  A
C671        C676   1.397       .  A
C671        F678   1.358       .  S
C672        C673   1.409       .  A
C673        C674   1.395       .  A
C673        F680   1.358       .  S
C674        C675   1.409       .  A
C674        F679   1.358       .  S
C675        C676   1.409   1_655  A
C676        F677   1.358       .  S
C681        C682   1.408       .  A
C681        C686   1.397       .  A
C681        F688   1.358       .  S
C682        C683   1.408   1_655  A
C683        C684   1.396       .  A
C683        F690   1.358       .  S
C684        C685   1.408   1_455  A
C684        F689   1.358       .  S
C685        C686   1.408       .  A
C686        F687   1.358       .  S
C691        C692   1.407   1_556  A
C691        C696   1.399       .  A
C691        F698   1.358       .  S
C693        C694   1.399       .  A
C693        F700   1.358       .  S
C694        F699   1.358       .  S
C695        C696   1.408   1_554  A
C696        F697   1.358       .  S
C701        C702   1.410       .  A
C701        C706   1.400       .  A
C701        F708   1.358       .  S
C702        C703   1.409   1_565  A
C703        C704   1.396       .  A
C703        F710   1.358       .  S
C704        C705   1.409   1_545  A
C704        F709   1.358       .  S
C705        C706   1.410       .  A
C706        F707   1.358       .  S
C711        C712   1.405       .  A
C711        C716   1.398       .  A
C711        F718   1.358       .  S
C712        C713   1.406   1_565  A
C713        C714   1.400       .  A
C713        F720   1.358       .  S
C714        C715   1.406   1_545  A
C714        F719   1.358       .  S
C715        C716   1.406       .  A
C716        F717   1.358       .  S
C721        C722   1.411       .  A
C721        C726   1.402       .  A
C721        F728   1.358       .  S
C723        C724   1.395       .  A
C723        F730   1.358       .  S
C724        F729   1.358       .  S
C725        C726   1.411       .  A
C726        F727   1.358       .  S
C731        C732   1.411   1_545  A
C731        C736   1.398       .  A
C731        F738   1.358       .  S
C732        C733   1.408       .  A
C733        C734   1.396       .  A
C733        F740   1.358       .  S
C734        C735   1.410   1_565  A
C734        F739   1.358       .  S
C735        C736   1.409       .  A
C736        F737   1.358       .  S
C741        C742   1.406       .  A
C741        C746   1.398       .  A
C741        F748   1.358       .  S
C742        C743   1.407   1_565  A
C743        C744   1.397       .  A
C743        F750   1.358       .  S
C744        C745   1.404   1_545  A
C744        F749   1.358       .  S
C745        C746   1.407       .  A
C746        F747   1.358       .  S
C751        C752   1.408   1_545  A
C751        C756   1.400       .  A
C751        F758   1.358       .  S
C753        C754   1.399       .  A
C753        F760   1.358       .  S
C754        F759   1.358       .  S
C755        C756   1.406   1_565  A
C756        F757   1.358       .  S
