geometry optimzed in LAMMPS
_audit_creation_date              2020-11-30 
_audit_creation_method            'lammps2cif' 
_symmetry_space_group_name_H-M    'P1' 
_symmetry_Int_Tables_number       1 
_symmetry_cell_setting            triclinic 
loop_ 
_symmetry_equiv_pos_as_xyz 
  x,y,z 
_cell_length_a                    39.81910213075997 
_cell_length_b                    39.82409967314823 
_cell_length_c                    65.01556024161185 
_cell_angle_alpha                 90.03155713441757 
_cell_angle_beta                  89.98706173951388 
_cell_angle_gamma                 119.94125523913247 
loop_ 
_atom_site_label 
_atom_site_type_symbol 
_atom_site_fract_x 
_atom_site_fract_y 
_atom_site_fract_z 
_atom_site_charge 
O1          O  0.40787201  0.24561643  0.43612225    -0.86790
O2          O  0.36446800  0.23782158  0.46892918    -0.83840
C3          C  0.33334981  0.22932170  0.47795200     0.96670
O4          O  0.30540823  0.19469438  0.47766951    -0.83870
O5          O  0.27275752  0.19242845  0.44089256    -0.86510
C6          C  0.27172233  0.19775065  0.42187136     1.01200
O7          O  0.28768704  0.18560762  0.40931222    -0.79280
O8          O  0.36478523  0.23764816  0.41273775    -0.79460
C9          C  0.39550573  0.25938990  0.42242959     1.01150
O10         O  0.39448324  0.16697207  0.44336276    -0.86790
O11         O  0.35747066  0.16113174  0.47843061    -0.83850
C12         C  0.32876461  0.12686763  0.47802098     0.96690
O13         O  0.29889764  0.11944396  0.46790361    -0.83880
O14         O  0.25983907  0.11415041  0.43314268    -0.86480
C15         C  0.27339366  0.10110706  0.41966867     1.01160
O16         O  0.30573119  0.12299942  0.41139883    -0.79300
O17         O  0.38329075  0.17511125  0.41126304    -0.79450
C18         C  0.39743709  0.16221963  0.42450490     1.01130
Cr19       Cr  0.37742020  0.20109967  0.45558418     1.93740
Cr20       Cr  0.28796172  0.15703628  0.45387513     1.93210
Cr21       Cr  0.33530930  0.18028812  0.41344500     1.39100
O22         O  0.33356330  0.17935367  0.44093377    -1.24540
O23         O  0.24027594  0.40584390  0.56304873    -0.86790
O24         O  0.20897439  0.36889593  0.52793759    -0.83840
C25         C  0.21440676  0.34007226  0.52829293     0.96670
O26         O  0.19185885  0.31014725  0.53827060    -0.83870
O27         O  0.15829868  0.27098628  0.57288800    -0.86510
C28         C  0.18504814  0.28450863  0.58627529     1.01200
O29         O  0.19554825  0.31681135  0.59458216    -0.79280
O30         O  0.22118716  0.39427056  0.59517154    -0.79460
C31         C  0.24816441  0.40862101  0.58189773     1.01150
O32         O  0.17492534  0.41914626  0.57046121    -0.86790
O33         O  0.13918151  0.37599109  0.53745978    -0.83850
C34         C  0.11650657  0.34499012  0.52831587     0.96690
O35         O  0.12318522  0.31699241  0.52851435    -0.83880
O36         O  0.09315483  0.28439673  0.56517887    -0.86480
C37         C  0.08685978  0.28313213  0.58418427     1.01160
O38         O  0.11493131  0.29882023  0.59677775    -0.79300
O39         O  0.14020553  0.37607692  0.59392781    -0.79450
C40         C  0.14914579  0.40688242  0.58434518     1.01130
Cr41       Cr  0.18897355  0.38883605  0.55082930     1.93740
Cr42       Cr  0.14353303  0.29939027  0.55226096     1.93210
Cr43       Cr  0.16790607  0.34642221  0.59284377     1.39100
O44         O  0.16691121  0.34490891  0.56534577    -1.24540
O45         O  0.15292039  0.40892600  0.94346844    -0.86790
O46         O  0.14626367  0.37127161  0.97836039    -0.83840
C47         C  0.11219708  0.34222435  0.97806388     0.96670
O48         O  0.10510280  0.31234319  0.96804718    -0.83870
O49         O  0.09956494  0.27386322  0.93305405    -0.86510
C50         C  0.08651836  0.28744942  0.91962583     1.01200
O51         O  0.10839755  0.31982631  0.91138222    -0.79280
O52         O  0.16034344  0.39746786  0.91131057    -0.79460
C53         C  0.14783620  0.41182315  0.92464377     1.01150
O54         O  0.23156986  0.42167199  0.93648401    -0.86790
O55         O  0.22316419  0.37811812  0.96925697    -0.83850
C56         C  0.21483226  0.34686000  0.97807203     0.96690
O57         O  0.18040227  0.31860403  0.97742363    -0.83880
O58         O  0.17786891  0.28664903  0.94034773    -0.86480
C59         C  0.18319089  0.28590416  0.92129914     1.01160
O60         O  0.17121287  0.30218964  0.90888447    -0.79300
O61         O  0.22311098  0.37926960  0.91254019    -0.79450
C62         C  0.24508504  0.40954618  0.92251695     1.01130
Cr63       Cr  0.18665607  0.39128172  0.95571956     1.93740
Cr64       Cr  0.14265177  0.30173176  0.95367843     1.93210
Cr65       Cr  0.16572367  0.34960798  0.91336142     1.39100
O66         O  0.16490862  0.34755749  0.94089402    -1.24540
O67         O  0.64409122  0.80411915  0.52822881    -0.86790
O68         O  0.60703347  0.77263904  0.56332879    -0.83840
C69         C  0.60406233  0.76482274  0.58218983     0.96670
O70         O  0.61833942  0.79182807  0.59544403    -0.83870
O71         O  0.69595908  0.81744928  0.59493667    -0.86510
C72         C  0.72835536  0.82813938  0.58666643     1.01200
O73         O  0.74181244  0.85490673  0.57330373    -0.79280
O74         O  0.70292133  0.82145851  0.53856710    -0.79460
C75         C  0.67305115  0.79891239  0.52853924     1.01150
O76         O  0.63658519  0.87356229  0.53771280    -0.86790
O77         O  0.59352738  0.83784544  0.57065789    -0.83850
C78         C  0.60586551  0.86385474  0.58441668     0.96690
O79         O  0.63659150  0.87277027  0.59409965    -0.83880
O80         O  0.71379015  0.89789763  0.59728990    -0.86480
C81         C  0.72942846  0.92600119  0.58474975     1.01160
O82         O  0.72812365  0.91979394  0.56572260    -0.79300
O83         O  0.69574093  0.88986284  0.52891581    -0.79450
C84         C  0.66755696  0.89625661  0.52858030     1.01130
Cr85       Cr  0.62395104  0.82389632  0.55109781     1.93740
Cr86       Cr  0.66622859  0.84502342  0.59317197     1.93210
Cr87       Cr  0.71339730  0.86959922  0.55266708     1.39100
O88         O  0.66784189  0.84604371  0.56567420    -1.24540
O89         O  0.76027450  0.16665010  0.44323900    -0.86790
O90         O  0.79077664  0.16020784  0.47841918    -0.83840
C91         C  0.78591410  0.12615881  0.47821842     0.96670
O92         O  0.80896633  0.11913874  0.46844187    -0.83870
O93         O  0.84201583  0.11338322  0.43369177    -0.86510
C94         C  0.81520930  0.10028665  0.42034619     1.01200
O95         O  0.80496295  0.12222411  0.41195631    -0.79280
O96         O  0.77956228  0.17417853  0.41117867    -0.79460
C97         C  0.75249461  0.16141802  0.42437319     1.01150
O98         O  0.82621427  0.24538033  0.43630655    -0.86790
O99         O  0.86108213  0.23727035  0.46947300    -0.83850
C100        C  0.88406584  0.22908923  0.47843255     0.96690
O101        O  0.87780751  0.19458927  0.47798499    -0.83880
O102        O  0.90740025  0.19183676  0.44119453    -0.86480
C103        C  0.91362836  0.19690801  0.42218144     1.01160
O104        O  0.88553744  0.18454453  0.40963213    -0.79300
O105        O  0.86046943  0.23674041  0.41260040    -0.79450
C106        C  0.85180431  0.25873575  0.42230889     1.01130
Cr107      Cr  0.81147628  0.20061181  0.45574770     1.93740
Cr108      Cr  0.85711919  0.15663767  0.45426406     1.93210
Cr109      Cr  0.83271220  0.17941071  0.41366916     1.39100
O110        O  0.83368107  0.17883342  0.44121099    -1.24540
O111        O  0.40517599  0.18932257  0.07046168    -0.86790
O112        O  0.36188168  0.15354758  0.03761833    -0.83840
C113        C  0.33085248  0.13096807  0.02850469     0.96670
O114        O  0.30278929  0.13753024  0.02884051    -0.83870
O115        O  0.27049745  0.10739415  0.06562673    -0.86510
C116        C  0.26918630  0.10122348  0.08465035     1.01200
O117        O  0.28494974  0.12935936  0.09718632    -0.79280
O118        O  0.36207187  0.15421291  0.09382851    -0.79460
C119        C  0.39276317  0.16313603  0.08410798     1.01150
O120        O  0.39166284  0.25452653  0.06321744    -0.86790
O121        O  0.35437582  0.22284987  0.02813823    -0.83850
C122        C  0.32547239  0.22813554  0.02852181     0.96690
O123        O  0.29571629  0.20580722  0.03867487    -0.83880
O124        O  0.25701144  0.17232479  0.07343687    -0.86480
C125        C  0.27063505  0.19918083  0.08675955     1.01160
O126        O  0.30309497  0.20989179  0.09494894    -0.79300
O127        O  0.38066256  0.23529995  0.09532278    -0.79450
C128        C  0.39480664  0.26233325  0.08208923     1.01130
Cr129      Cr  0.37466953  0.20323938  0.05097311     1.93740
Cr130      Cr  0.28523851  0.15765417  0.05267515     1.93210
Cr131      Cr  0.33263347  0.18215505  0.09307654     1.39100
O132        O  0.33086277  0.18115372  0.06560254    -1.24540
O133        O  0.17456479  0.77823969  0.56907721    -0.86790
O134        O  0.14046166  0.78759743  0.53621372    -0.83840
C135        C  0.11674326  0.79545454  0.52788589     0.96670
O136        O  0.12212403  0.82958786  0.52889538    -0.83870
O137        O  0.09380335  0.83345309  0.56584783    -0.86510
C138        C  0.08753728  0.82713513  0.58481376     1.01200
O139        O  0.11557352  0.83812854  0.59727674    -0.79280
O140        O  0.14181330  0.78714495  0.59356389    -0.79460
C141        C  0.14963281  0.76504203  0.58335233     1.01150
O142        O  0.24095923  0.85682310  0.56285716    -0.86790
O143        O  0.21128040  0.86466701  0.52796794    -0.83850
C144        C  0.21551396  0.89841943  0.52807590     0.96690
O145        O  0.19190675  0.90495426  0.53764174    -0.83880
O146        O  0.16041691  0.91176523  0.57264669    -0.86480
C147        C  0.18619710  0.92416418  0.58653613     1.01160
O148        O  0.19562802  0.90171615  0.59510761    -0.79300
O149        O  0.22217396  0.85065264  0.59498839    -0.79450
C150        C  0.24892918  0.86270655  0.58165968     1.01130
Cr151      Cr  0.18980422  0.82371700  0.55025278     1.93740
Cr152      Cr  0.14409573  0.86791823  0.55234474     1.93210
Cr153      Cr  0.16873624  0.84445536  0.59276964     1.39100
O154        O  0.16763432  0.84543988  0.56514502    -1.24540
O155        O  0.59086523  0.78135467  0.93621912    -0.86790
O156        O  0.63449744  0.78949319  0.96896801    -0.83840
C157        C  0.66568329  0.79800614  0.97792437     0.96670
O158        O  0.69375672  0.83255258  0.97744244    -0.83870
O159        O  0.72596780  0.83473669  0.94050647    -0.86510
C160        C  0.72687869  0.82939782  0.92147398     1.01200
O161        O  0.71070923  0.84138710  0.90897649    -0.79280
O162        O  0.63363557  0.78935573  0.91261882    -0.79460
C163        C  0.60311807  0.76758068  0.92245554     1.01150
O164        O  0.60412852  0.86007123  0.94334308    -0.86790
O165        O  0.64150168  0.86623643  0.97832928    -0.83850
C166        C  0.67032582  0.90042441  0.97794053     0.96690
O167        O  0.70011816  0.90774058  0.96777495    -0.83880
O168        O  0.73878797  0.91292955  0.93286112    -0.86480
C169        C  0.72516827  0.92591804  0.91941082     1.01160
O170        O  0.69275989  0.90401779  0.91120223    -0.79300
O171        O  0.61517544  0.85195387  0.91121237    -0.79450
C172        C  0.60110245  0.86486095  0.92449674     1.01130
Cr173      Cr  0.62140968  0.82608211  0.95556148     1.93740
Cr174      Cr  0.71087567  0.87011198  0.95361868     1.93210
Cr175      Cr  0.66314341  0.84673215  0.91328946     1.39100
O176        O  0.66514011  0.84775867  0.94079236    -1.24540
O177        O  0.23795409  0.85848635  0.94262587    -0.86790
O178        O  0.20950146  0.86806430  0.97751206    -0.83840
C179        C  0.21255670  0.90127040  0.97812209     0.96670
O180        O  0.18834676  0.90754336  0.96908330    -0.83870
O181        O  0.15827359  0.91558300  0.93407990    -0.86510
C182        C  0.18309254  0.92745301  0.91977295     1.01200
O183        O  0.19154794  0.90474263  0.91070612    -0.79280
O184        O  0.21972699  0.85541335  0.91055122    -0.79460
C185        C  0.24621098  0.86571735  0.92390199     1.01150
O186        O  0.17011015  0.78036602  0.93725375    -0.86790
O187        O  0.13779531  0.79139646  0.97028833    -0.83850
C188        C  0.11363293  0.79893253  0.97837050     0.96690
O189        O  0.11811530  0.83260232  0.97694020    -0.83880
O190        O  0.09116332  0.83780864  0.94009706    -0.86480
C191        C  0.08469908  0.83039327  0.92125325     1.01160
O192        O  0.11232283  0.84008125  0.90869479    -0.79300
O193        O  0.14009228  0.79041979  0.91173298    -0.79450
C194        C  0.14673360  0.76786707  0.92227919     1.01130
Cr195      Cr  0.18675824  0.82659158  0.95563697     1.93740
Cr196      Cr  0.14116148  0.87121707  0.95383787     1.93210
Cr197      Cr  0.16581387  0.84769737  0.91305771     1.39100
O198        O  0.16466675  0.84856494  0.94081544    -1.24540
O199        O  0.75839520  0.62145348  0.06304189    -0.86790
O200        O  0.78994988  0.65873236  0.02804082    -0.83840
C201        C  0.78464499  0.68762157  0.02843920     0.96670
O202        O  0.80710880  0.71743956  0.03853851    -0.83870
O203        O  0.84035726  0.75601048  0.07339933    -0.87870
C204        C  0.81340667  0.74229640  0.08666144     1.01200
O205        O  0.80268859  0.70983851  0.09482155    -0.79280
O206        O  0.77747366  0.63239316  0.09516835    -0.79460
C207        C  0.75050778  0.61831597  0.08189488     1.01150
O208        O  0.82374987  0.60812058  0.07035132    -0.86790
O209        O  0.85945265  0.65141369  0.03747010    -0.83850
C210        C  0.88210933  0.68247353  0.02840056     0.96690
O211        O  0.87566461  0.71060830  0.02883217    -0.83880
O212        O  0.90543484  0.74263153  0.06577037    -0.86480
C213        C  0.91151388  0.74389845  0.08481526     1.01160
O214        O  0.88328867  0.72817519  0.09728701    -0.79300
O215        O  0.85853053  0.65115027  0.09384956    -0.79450
C216        C  0.84973472  0.62050934  0.08412229     1.01130
Cr217      Cr  0.80971956  0.63853017  0.05084923     1.93740
Cr218      Cr  0.85525183  0.72793698  0.05265688     1.93210
Cr219      Cr  0.83054629  0.68046369  0.09301707     1.39100
O220        O  0.83171779  0.68228981  0.06552863    -1.24540
O221        O  0.84604932  0.61847273  0.44352123    -0.86790
O222        O  0.85213713  0.65573772  0.47853215    -0.83840
C223        C  0.88635811  0.68454234  0.47811368     0.96670
O224        O  0.89361875  0.71442752  0.46808054    -0.83870
O225        O  0.89892105  0.75333076  0.43331776    -0.86510
C226        C  0.91208586  0.73972677  0.41994068     1.01200
O227        O  0.89027551  0.70732403  0.41170352    -0.79280
O228        O  0.83815469  0.62974800  0.41140736    -0.79460
C229        C  0.85086588  0.61547025  0.42467193     1.01150
O230        O  0.76744193  0.60535124  0.43629291    -0.86790
O231        O  0.77524681  0.64868188  0.46915019    -0.83850
C232        C  0.78367923  0.67981993  0.47814782     0.96690
O233        O  0.81827761  0.70782105  0.47779672    -0.83880
O234        O  0.82051733  0.74020633  0.44093869    -0.86480
C235        C  0.81536327  0.74125957  0.42190006     1.01160
O236        O  0.82767678  0.72536418  0.40939723    -0.79300
O237        O  0.77564779  0.64829329  0.41276450    -0.79450
C238        C  0.75380960  0.61769715  0.42251081     1.01130
Cr239      Cr  0.81200289  0.63571428  0.45574894     1.93740
Cr240      Cr  0.85596376  0.72518155  0.45400742     1.93210
Cr241      Cr  0.83298350  0.67775092  0.41359301     1.39100
O242        O  0.83375326  0.67953234  0.44108615    -1.24540
O243        O  0.58732804  0.72998692  0.24036407    -0.86790
O244        O  0.58127169  0.70749026  0.28053582    -0.83840
C245        C  0.57469645  0.73261303  0.28812925     0.96670
O246        O  0.54198905  0.72977902  0.28599839    -0.83870
O247        O  0.47434426  0.71565128  0.26875452    -0.86510
C248        C  0.48259538  0.73734667  0.25309334     1.01200
O249        O  0.49323588  0.72863109  0.23659714    -0.79280
O250        O  0.54486021  0.71436113  0.21525238    -0.79460
C251        C  0.57878299  0.73536093  0.22250154     1.01150
O252        O  0.55352040  0.65248275  0.22744079    -0.86790
O253        O  0.53686537  0.62953975  0.26768664    -0.83850
C254        C  0.52427681  0.62529588  0.28582902     0.96690
O255        O  0.51259558  0.64740036  0.29300355    -0.83880
O256        O  0.44674324  0.63246854  0.27183861    -0.86480
C257        C  0.42629706  0.62343284  0.25575188     1.01160
O258        O  0.43856527  0.64446766  0.23972144    -0.79300
O259        O  0.49269203  0.63179843  0.22016091    -0.79450
C260        C  0.52274725  0.62896720  0.21844377     1.01130
Cr261      Cr  0.56074615  0.67983262  0.25396921     1.93740
Cr262      Cr  0.49529219  0.68109422  0.27791305     1.93210
Cr263      Cr  0.49388372  0.67989445  0.22994817     1.39100
O264        O  0.51620701  0.68007050  0.25386582    -1.24540
O265        O  0.36251657  0.46012584  0.22774278    -0.86790
O266        O  0.38360758  0.47480521  0.26873983    -0.83840
C267        C  0.38746352  0.48882545  0.28653101     0.96670
O268        O  0.36506183  0.50059009  0.29304536    -0.83870
O269        O  0.38004239  0.56570301  0.27192138    -0.86510
C270        C  0.38881407  0.58610310  0.25585606     1.01200
O271        O  0.36724825  0.57384334  0.24002578    -0.79280
O272        O  0.38133260  0.52084410  0.22113937    -0.79460
C273        C  0.38514951  0.49150208  0.21886823     1.01150
O274        O  0.28406613  0.42482064  0.24009005    -0.86790
O275        O  0.30499372  0.43074010  0.28042492    -0.83850
C276        C  0.28001988  0.43757522  0.28805674     0.96690
O277        O  0.28289884  0.47031834  0.28592940    -0.83880
O278        O  0.29684712  0.53796379  0.26855504    -0.86480
C279        C  0.27496930  0.52925164  0.25295408     1.01160
O280        O  0.28343089  0.51799224  0.23660764    -0.79300
O281        O  0.29921742  0.46750422  0.21521255    -0.79450
C282        C  0.27839025  0.43349110  0.22233814     1.01130
Cr283      Cr  0.33381667  0.45166829  0.25416513     1.93740
Cr284      Cr  0.33139636  0.51716491  0.27790332     1.93210
Cr285      Cr  0.33271951  0.51837822  0.23023885     1.39100
O286        O  0.33286711  0.49606976  0.25405471    -1.24540
O287        O  0.18948125  0.64553087  0.23791215    -0.86790
O288        O  0.12175451  0.63079879  0.22038140    -0.83840
C289        C  0.08862581  0.62710993  0.21854708     0.96670
O290        O  0.08039119  0.65007816  0.22753624    -0.83870
O291        O  0.07589143  0.62927262  0.26851654    -0.86510
C292        C  0.08693997  0.62544679  0.28608248     1.01200
O293        O  0.12151099  0.64752227  0.29213524    -0.79280
O294        O  0.17121449  0.63255739  0.27021326    -0.79460
C295        C  0.18143385  0.62387773  0.25361561     1.01150
O296        O  0.21613908  0.72909705  0.23473410    -0.86790
O297        O  0.14971745  0.71274928  0.21428240    -0.83850
C298        C  0.13795099  0.73438891  0.22191311     0.96690
O299        O  0.12426785  0.72876202  0.23982784    -0.83880
O300        O  0.11082063  0.70758547  0.28020625    -0.86480
C301        C  0.14285950  0.73247903  0.28757188     1.01160
O302        O  0.17271450  0.72971478  0.28487539    -0.79300
O303        O  0.22593470  0.71585248  0.26611893    -0.79450
C304        C  0.23735342  0.73782442  0.25048421     1.01130
Cr305      Cr  0.16788219  0.67960628  0.22883091     1.93740
Cr306      Cr  0.10178224  0.67888561  0.25386713     1.93210
Cr307      Cr  0.17104242  0.68123534  0.27643682     1.39100
O308        O  0.14692457  0.67952941  0.25304212    -1.24540
O309        O  0.11023361  0.43175961  0.22607390    -0.86790
O310        O  0.12568854  0.42441832  0.26631868    -0.83840
C311        C  0.13931780  0.43254650  0.28426925     0.96670
O312        O  0.15180092  0.46621578  0.29171375    -0.83870
O313        O  0.21776966  0.51777706  0.27059817    -0.86510
C314        C  0.23754130  0.52935053  0.25428369     1.01200
O315        O  0.22460118  0.53862665  0.23877736    -0.79280
O316        O  0.17167742  0.47173055  0.22082452    -0.79460
C317        C  0.14215936  0.43884366  0.21862305     1.01150
O318        O  0.07575395  0.47524142  0.23885722    -0.86790
O319        O  0.08163121  0.45818198  0.27909257    -0.83850
C320        C  0.08887736  0.48885337  0.28822230     0.96690
O321        O  0.12186598  0.51873598  0.28689472    -0.83880
O322        O  0.18875196  0.57267973  0.26801825    -0.86480
C323        C  0.18086313  0.58632049  0.25225267     1.01160
O324        O  0.16970688  0.56706936  0.23575206    -0.79300
O325        O  0.11862490  0.50116859  0.21397828    -0.79450
C326        C  0.08447117  0.48851133  0.22084722     1.01130
Cr327      Cr  0.10228332  0.45140868  0.25265900     1.93740
Cr328      Cr  0.16860909  0.51737512  0.27726285     1.93210
Cr329      Cr  0.16937875  0.51812533  0.22930147     1.39100
O330        O  0.14689239  0.49610275  0.25312922    -1.24540
O331        O  0.46154135  0.39751325  0.76746800    -0.86790
O332        O  0.44478914  0.37467201  0.72722358    -0.83840
C333        C  0.47553819  0.39813142  0.71819555     0.96670
O334        O  0.50553756  0.39518341  0.71979781    -0.83870
O335        O  0.55981848  0.38272986  0.73928788    -0.86510
C336        C  0.57207934  0.40390960  0.75528358     1.01200
O337        O  0.55164583  0.39499114  0.77136662    -0.79280
O338        O  0.48588711  0.37966533  0.79271520    -0.79460
C339        C  0.47420214  0.40177325  0.78559320     1.01150
O340        O  0.41735683  0.31947791  0.78023228    -0.86790
O341        O  0.41087362  0.29707649  0.73998366    -0.83850
C342        C  0.41936901  0.29171494  0.72209726     0.96690
O343        O  0.45337241  0.31258405  0.71489950    -0.83880
O344        O  0.50530483  0.29855151  0.73624540    -0.86480
C345        C  0.51644849  0.29024322  0.75269369     1.01160
O346        O  0.52473119  0.31207396  0.76830272    -0.79300
O347        O  0.45691013  0.29746014  0.78562742    -0.79450
C348        C  0.42416416  0.29451498  0.78781962     1.01130
Cr349      Cr  0.43763962  0.34722171  0.75368767     1.93740
Cr350      Cr  0.50444736  0.34716254  0.72956462     1.93210
Cr351      Cr  0.50337295  0.34624293  0.77751078     1.39100
O352        O  0.48221508  0.34703407  0.75350290    -1.24540
O353        O  0.63618800  0.56725383  0.72751539    -0.86790
O354        O  0.61509714  0.55253923  0.76850211    -0.83840
C355        C  0.61122536  0.53849355  0.78628206     0.96670
O356        O  0.63361229  0.52671865  0.79276260    -0.83870
O357        O  0.61822398  0.46163038  0.77147004    -0.86510
C358        C  0.60956131  0.44121991  0.75540345     1.01200
O359        O  0.63128395  0.45343155  0.73962832    -0.79280
O360        O  0.61745801  0.50657555  0.72079006    -0.79460
C361        C  0.61354928  0.53587894  0.71863610     1.01150
O362        O  0.71467655  0.60260944  0.73976299    -0.86790
O363        O  0.69374346  0.59636505  0.78014826    -0.83850
C364        C  0.71857770  0.58933951  0.78777729     0.96690
O365        O  0.71558905  0.55655099  0.78561731    -0.83880
O366        O  0.70117096  0.48870386  0.76820615    -0.86480
C367        C  0.72323596  0.49747482  0.75269269     1.01160
O368        O  0.71515678  0.50912390  0.73636696    -0.79300
O369        O  0.69961433  0.55983397  0.71491912    -0.79450
C370        C  0.72034643  0.59392656  0.72199856     1.01130
Cr371      Cr  0.66490757  0.57564741  0.75389664     1.93740
Cr372      Cr  0.66699560  0.50991341  0.77754957     1.93210
Cr373      Cr  0.66598131  0.50892153  0.72990716     1.39100
O374        O  0.66577328  0.53119462  0.75372993    -1.24540
O375        O  0.58829298  0.88700563  0.26641940    -0.86790
O376        O  0.58058270  0.90237154  0.22620400    -0.83840
C377        C  0.57333041  0.87046026  0.21866378     0.96670
O378        O  0.54042918  0.84096506  0.22090041    -0.83870
O379        O  0.47358636  0.78808644  0.23902531    -0.86510
C380        C  0.48279596  0.77498021  0.25449544     1.01200
O381        O  0.49464632  0.79478689  0.27080386    -0.79280
O382        O  0.54662847  0.86086233  0.29185644    -0.79460
C383        C  0.58027374  0.87338991  0.28437240     1.01150
O384        O  0.55467616  0.93113327  0.27927756    -0.86790
O385        O  0.53747797  0.93713940  0.23908243    -0.83850
C386        C  0.52423005  0.92846536  0.22106219     0.96690
O387        O  0.51120941  0.89419889  0.21426004    -0.83880
O388        O  0.44541196  0.84327303  0.23628747    -0.86480
C389        C  0.42624558  0.83213928  0.25282283     1.01160
O390        O  0.43992589  0.82412422  0.26851934    -0.79300
O391        O  0.49417026  0.89092411  0.28717243    -0.79450
C392        C  0.52401319  0.92394668  0.28838224     1.01130
Cr393      Cr  0.56122671  0.91043099  0.25283164     1.93740
Cr394      Cr  0.49418452  0.84339533  0.22958777     1.93210
Cr395      Cr  0.49534794  0.84412400  0.27753740     1.39100
O396        O  0.51647644  0.86583348  0.25337258    -1.24540
O397        O  0.37947020  0.84154936  0.27065171    -0.86790
O398        O  0.36495291  0.89204707  0.29208707    -0.83840
C399        C  0.38711885  0.92643037  0.28588968     0.96670
O400        O  0.38330181  0.93728752  0.26825645    -0.83870
O401        O  0.36327108  0.93255885  0.22708207    -0.86510
C402        C  0.38613782  0.92403578  0.21831590     1.01200
O403        O  0.38231689  0.89089225  0.22042142    -0.79280
O404        O  0.36731137  0.82341035  0.23834089    -0.79460
C405        C  0.38858673  0.83142654  0.25414371     1.01150
O406        O  0.29570451  0.78737414  0.26664414    -0.86790
O407        O  0.28275219  0.84175803  0.28551270    -0.83850
C408        C  0.28023761  0.87197303  0.28720772     0.96690
O409        O  0.30481272  0.90325020  0.27905676    -0.83880
O410        O  0.28454289  0.89036162  0.23838330    -0.86480
C411        C  0.27890179  0.87475419  0.22093362     1.01160
O412        O  0.30021532  0.86194669  0.21415581    -0.79300
O413        O  0.28404233  0.79633423  0.23475660    -0.79450
C414        C  0.27471148  0.77544440  0.25063797     1.01130
Cr415      Cr  0.33086733  0.84243695  0.27669142     1.93740
Cr416      Cr  0.33396533  0.91168829  0.25316513     1.93210
Cr417      Cr  0.33338874  0.84471837  0.22898041     1.39100
O418        O  0.33273737  0.86609719  0.25296319    -1.24540
O419        O  0.88724147  0.59402432  0.72579148    -0.86790
O420        O  0.87206890  0.60183352  0.76603885    -0.83840
C421        C  0.85865732  0.59383446  0.78403244     0.96670
O422        O  0.84620698  0.56021544  0.79151291    -0.83870
O423        O  0.78019170  0.50856800  0.77045055    -0.86510
C424        C  0.76042742  0.49697202  0.75412716     1.01200
O425        O  0.77319722  0.48731272  0.73869553    -0.79280
O426        O  0.82575731  0.55412080  0.72058134    -0.79460
C427        C  0.85533631  0.58691032  0.71828141     1.01150
O428        O  0.92170499  0.55068494  0.73875680    -0.86790
O429        O  0.91631597  0.56830643  0.77887791    -0.83850
C430        C  0.90920959  0.53771369  0.78803768     0.96690
O431        O  0.87623436  0.50777995  0.78674294    -0.83880
O432        O  0.80933887  0.45366810  0.76795667    -0.86480
C433        C  0.81747561  0.44014431  0.75222226     1.01160
O434        O  0.82840242  0.45927663  0.73569255    -0.79300
O435        O  0.87901768  0.52498241  0.71378371    -0.79450
C436        C  0.91309581  0.53757154  0.72072033     1.01130
Cr437      Cr  0.89541351  0.57476064  0.75243661     1.93740
Cr438      Cr  0.82936619  0.50898841  0.77713461     1.93210
Cr439      Cr  0.82834209  0.50793299  0.72915940     1.39100
O440        O  0.85087757  0.53011747  0.75296982    -1.24540
O441        O  0.80928411  0.38127022  0.73783824    -0.86790
O442        O  0.87736318  0.39637846  0.72030279    -0.83840
C443        C  0.91058605  0.40021030  0.71842881     0.96670
O444        O  0.91898010  0.37727813  0.72729740    -0.83870
O445        O  0.92317961  0.39666071  0.76846847    -0.86510
C446        C  0.91198349  0.40083643  0.78592990     1.01200
O447        O  0.87735183  0.37899899  0.79189627    -0.79280
O448        O  0.82785731  0.39421789  0.77004444    -0.79460
C449        C  0.81730225  0.40281528  0.75355337     1.01150
O450        O  0.78278781  0.29793769  0.73431608    -0.86790
O451        O  0.84861587  0.31463743  0.71382340    -0.83850
C452        C  0.86074491  0.29287442  0.72071662     0.96690
O453        O  0.87572002  0.29807549  0.73832320    -0.83880
O454        O  0.88773829  0.31781177  0.77934016    -0.86480
C455        C  0.85581006  0.29391898  0.78726750     1.01160
O456        O  0.82615939  0.29703765  0.78464453    -0.79300
O457        O  0.77307478  0.31078924  0.76579728    -0.79450
C458        C  0.76168811  0.28891418  0.75011085     1.01130
Cr459      Cr  0.83102144  0.34751731  0.72860537     1.93740
Cr460      Cr  0.89731194  0.34745261  0.75327854     1.93210
Cr461      Cr  0.82797870  0.34542921  0.77612474     1.39100
O462        O  0.85207052  0.34698704  0.75267494    -1.24540
O463        O  0.41147524  0.14127415  0.76602627    -0.86790
O464        O  0.41927496  0.12582965  0.72578994    -0.83840
C465        C  0.42640323  0.15770066  0.71824718     0.96670
O466        O  0.45921328  0.18726731  0.72055591    -0.83870
O467        O  0.52611515  0.23994303  0.73863206    -0.86510
C468        C  0.51680862  0.25291662  0.75412128     1.01200
O469        O  0.50530606  0.23319946  0.77046592    -0.79280
O470        O  0.45315250  0.16720174  0.79149288    -0.79460
C471        C  0.41945798  0.15464936  0.78403436     1.01150
O472        O  0.44473842  0.09690662  0.77896864    -0.86790
O473        O  0.46241497  0.09126268  0.73888461    -0.83850
C474        C  0.47556037  0.09978674  0.72085603     0.96690
O475        O  0.48830306  0.13387776  0.71389732    -0.83880
O476        O  0.55426103  0.18473290  0.73565489    -0.86480
C477        C  0.57344978  0.19553118  0.75218508     1.01160
O478        O  0.55984566  0.20343701  0.76798773    -0.79300
O479        O  0.50533637  0.13673366  0.78680992    -0.79450
C480        C  0.47528266  0.10385160  0.78812721     1.01130
Cr481      Cr  0.43848239  0.11777752  0.75248304     1.93740
Cr482      Cr  0.50544935  0.18470003  0.72916890     1.93210
Cr483      Cr  0.50446955  0.18377277  0.77715476     1.39100
O484        O  0.48325579  0.16226066  0.75299602    -1.24540
O485        O  0.61972298  0.18573793  0.77012237    -0.86790
O486        O  0.63360515  0.13522655  0.79199197    -0.83840
C487        C  0.61112688  0.10081527  0.78584781     0.96670
O488        O  0.61468234  0.08975457  0.76821389    -0.83870
O489        O  0.63598163  0.09357682  0.72728217    -0.86510
C490        C  0.61322430  0.10205962  0.71832788     1.01200
O491        O  0.61738615  0.13536396  0.72015285    -0.79280
O492        O  0.63216624  0.20300027  0.73765620    -0.79460
C493        C  0.61088600  0.19567647  0.75347999     1.01150
O494        O  0.70319945  0.23948146  0.76614768    -0.86790
O495        O  0.71605954  0.18536218  0.78530667    -0.83850
C496        C  0.71802978  0.15494197  0.78744859     0.96690
O497        O  0.69259388  0.12337427  0.77995099    -0.83880
O498        O  0.71455518  0.13636701  0.73979679    -0.86480
C499        C  0.72084135  0.15057770  0.72199711     1.01160
O500        O  0.69971906  0.16303404  0.71436890    -0.79300
O501        O  0.71571165  0.22975875  0.73455111    -0.79450
C502        C  0.72453833  0.25109484  0.75026476     1.01130
Cr503      Cr  0.66799955  0.18466090  0.77643388     1.93740
Cr504      Cr  0.66448109  0.11481855  0.75367263     1.93210
Cr505      Cr  0.66632641  0.18135976  0.72869731     1.39100
O506        O  0.66609036  0.16044377  0.75293688    -1.24540
O507        O  0.60453013  0.77438980  0.19231610    -0.86790
O508        O  0.59556487  0.83535185  0.20029315    -0.83840
C509        C  0.60369509  0.86745986  0.20782603     0.96670
O510        O  0.63763064  0.89647285  0.20656987    -0.83870
O511        O  0.68025004  0.88154379  0.23425427    -0.86510
C512        C  0.69543066  0.86365522  0.24230736     1.01200
O513        O  0.70922061  0.84723756  0.23143236    -0.79280
O514        O  0.64246369  0.78526136  0.21890917    -0.79460
C515        C  0.60979144  0.76649960  0.21050653     1.01150
O516        O  0.65696907  0.81956263  0.15888431    -0.86790
O517        O  0.64182247  0.87726480  0.16497819    -0.83850
C518        C  0.67467625  0.90755204  0.16320122     0.96690
O519        O  0.69944282  0.91831867  0.17729281    -0.83880
O520        O  0.74410347  0.90877578  0.20559326    -0.86480
C521        C  0.75848641  0.89171576  0.19547628     1.01160
O522        O  0.73826083  0.85658678  0.19054845    -0.79300
O523        O  0.67574033  0.78822485  0.17900486    -0.79450
C524        C  0.67234476  0.79900338  0.16126625     1.01130
Cr525      Cr  0.62770927  0.82813078  0.18025478     1.93740
Cr526      Cr  0.68878510  0.89773778  0.20532415     1.93210
Cr527      Cr  0.68980508  0.82123295  0.20437180     1.39100
O528        O  0.66874821  0.84921663  0.19664382    -1.24540
O529        O  0.60622020  0.85966661  0.31443229    -0.86790
O530        O  0.59739433  0.78977586  0.30663799    -0.83840
C531        C  0.60539651  0.76578939  0.29897853     0.96670
O532        O  0.63933727  0.77058077  0.30016575    -0.83870
O533        O  0.68153682  0.82801592  0.27262311    -0.86510
C534        C  0.69609237  0.86087657  0.26444983     1.01200
O535        O  0.71056863  0.89123358  0.27521575    -0.79280
O536        O  0.64399503  0.88674118  0.28779314    -0.79460
C537        C  0.61139192  0.87297193  0.29625273     1.01150
O538        O  0.65896939  0.86704716  0.34784164    -0.86790
O539        O  0.64414861  0.79436235  0.34194503    -0.83850
C540        C  0.67702020  0.79677072  0.34360575     0.96690
O541        O  0.70154804  0.81056414  0.32941095    -0.83880
O542        O  0.74597712  0.86492888  0.30127422    -0.86480
C543        C  0.76020849  0.89623422  0.31153235     1.01160
O544        O  0.73995423  0.91127128  0.31618647    -0.79300
O545        O  0.67744224  0.91704753  0.32770501    -0.79450
C546        C  0.67431028  0.90292590  0.34543342     1.01130
Cr547      Cr  0.62962916  0.82918406  0.32658436     1.93740
Cr548      Cr  0.69057404  0.82053014  0.30145477     1.93210
Cr549      Cr  0.69141870  0.89804708  0.30232715     1.39100
O550        O  0.67052735  0.84905182  0.31014380    -1.24540
O551        O  0.17745626  0.41650121  0.20053949    -0.86790
O552        O  0.23862232  0.40783352  0.19230936    -0.83840
C553        C  0.24683314  0.40254942  0.21042269     0.96670
O554        O  0.22790838  0.36994751  0.21887303    -0.83870
O555        O  0.16587569  0.30341980  0.23159652    -0.86510
C556        C  0.14914702  0.31702748  0.24235995     1.01200
O557        O  0.13102418  0.33187386  0.23422184    -0.79280
O558        O  0.11620917  0.37447638  0.20651775    -0.79460
C559        C  0.14523244  0.40840011  0.20789752     1.01150
O560        O  0.13544956  0.37053599  0.16517290    -0.86790
O561        O  0.19321557  0.35541587  0.15895470    -0.83850
C562        C  0.21369529  0.33993788  0.16129460     0.96690
O563        O  0.22436185  0.33624265  0.17901243    -0.83880
O564        O  0.15622668  0.27355549  0.19087628    -0.86480
C565        C  0.12111909  0.25328332  0.19586132     1.01160
O566        O  0.10391772  0.26789897  0.20566093    -0.79300
O567        O  0.09452877  0.31266449  0.17721088    -0.79450
C568        C  0.10517593  0.33769268  0.16326540     1.01130
Cr569      Cr  0.18467831  0.38454033  0.18038954     1.93740
Cr570      Cr  0.19165878  0.32241893  0.20447178     1.93210
Cr571      Cr  0.11499205  0.32329135  0.20529118     1.39100
O572        O  0.16359551  0.34338719  0.19670162    -1.24540
O573        O  0.22293172  0.41523604  0.30662353    -0.86790
O574        O  0.15306415  0.40670534  0.31436084    -0.83840
C575        C  0.13976386  0.40149810  0.29617818     0.96670
O576        O  0.12600289  0.36889484  0.28772504    -0.83870
O577        O  0.12138402  0.30227011  0.27519481    -0.86510
C578        C  0.15180676  0.31654504  0.26449641     1.01200
O579        O  0.18462144  0.33107295  0.27272657    -0.79280
O580        O  0.24198038  0.37313140  0.30030875    -0.79460
C581        C  0.24684458  0.40707172  0.29899947     1.01150
O582        O  0.21811302  0.36860813  0.34200769    -0.86790
O583        O  0.14534686  0.35392593  0.34778621    -0.83850
C584        C  0.10943945  0.33848005  0.34533139     0.96690
O585        O  0.09538863  0.33545294  0.32759286    -0.83880
O586        O  0.10095645  0.27288420  0.31610440    -0.86480
C587        C  0.11591961  0.25258827  0.31143693     1.01160
O588        O  0.14737228  0.26680135  0.30132257    -0.79300
O589        O  0.20175660  0.31110313  0.32956539    -0.79450
C590        C  0.21571531  0.33575250  0.34370641     1.01130
Cr591      Cr  0.18339064  0.38318168  0.32657415     1.93740
Cr592      Cr  0.11448427  0.32146357  0.30226467     1.93210
Cr593      Cr  0.19191379  0.32205405  0.30157117     1.39100
O594        O  0.16345650  0.34223573  0.31016709    -1.24540
O595        O  0.39368219  0.25273637  0.69186572    -0.86790
O596        O  0.40354780  0.19235509  0.69978958    -0.83840
C597        C  0.39591529  0.16042880  0.70735060     0.96670
O598        O  0.36220507  0.13121098  0.70610631    -0.83870
O599        O  0.31994274  0.14630519  0.73400067    -0.86510
C600        C  0.30419873  0.16364178  0.74208867     1.01200
O601        O  0.28964804  0.17939583  0.73128767    -0.79280
O602        O  0.35548474  0.24195679  0.71832651    -0.79460
C603        C  0.38827096  0.26066277  0.71001574     1.01150
O604        O  0.34134109  0.20744063  0.65851464    -0.86790
O605        O  0.35659570  0.14987314  0.66450542    -0.83850
C606        C  0.32383244  0.11933239  0.66301205     0.96690
O607        O  0.29967266  0.10830640  0.67737849    -0.83880
O608        O  0.25564123  0.11735971  0.70570889    -0.86480
C609        C  0.23996940  0.13325211  0.69574661     1.01160
O610        O  0.25866140  0.16856892  0.69088419    -0.79300
O611        O  0.32097179  0.23761351  0.67856951    -0.79450
C612        C  0.32565228  0.22773721  0.66082551     1.01130
Cr613      Cr  0.37075977  0.19903759  0.67983306     1.93740
Cr614      Cr  0.31091240  0.12942905  0.70519653     1.93210
Cr615      Cr  0.30792946  0.20503397  0.70409881     1.39100
O616        O  0.32977732  0.17765705  0.69628780    -1.24540
O617        O  0.39325236  0.16781213  0.81420456    -0.86790
O618        O  0.40176744  0.23747415  0.80634916    -0.83840
C619        C  0.39365720  0.26139738  0.79874143     0.96670
O620        O  0.35973599  0.25658797  0.80005049    -0.83870
O621        O  0.31801170  0.19924204  0.77238894    -0.86510
C622        C  0.30355282  0.16639678  0.76419520     1.01200
O623        O  0.28900701  0.13600707  0.77491010    -0.79280
O624        O  0.35553026  0.14061775  0.78756626    -0.79460
C625        C  0.38818565  0.15463936  0.79599745     1.01150
O626        O  0.34041065  0.16030993  0.84757605    -0.86790
O627        O  0.35492483  0.23287398  0.84165765    -0.83850
C628        C  0.32197928  0.23031441  0.84331233     0.96690
O629        O  0.29742475  0.21632898  0.82912955    -0.83880
O630        O  0.25330050  0.16211539  0.80076664    -0.86480
C631        C  0.23893492  0.13073216  0.81093180     1.01160
O632        O  0.25921595  0.11579468  0.81575010    -0.79300
O633        O  0.32187784  0.11024616  0.82743378    -0.79450
C634        C  0.32505236  0.12442954  0.84515848     1.01130
Cr635      Cr  0.36964426  0.19813915  0.82632293     1.93740
Cr636      Cr  0.30863780  0.20656349  0.80117665     1.93210
Cr637      Cr  0.30796976  0.12916046  0.80203045     1.39100
O638        O  0.32873186  0.17812378  0.80988492    -1.24540
O639        O  0.22409083  0.83857872  0.20038758    -0.86790
O640        O  0.15394010  0.77570332  0.19245420    -0.83840
C641        C  0.13942238  0.76668016  0.21034598     0.96670
O642        O  0.12554382  0.78536791  0.21888369    -0.83870
O643        O  0.12056878  0.84684410  0.23191894    -0.86510
C644        C  0.15123450  0.86378414  0.24241891     1.01200
O645        O  0.18369643  0.88311987  0.23401715    -0.79280
O646        O  0.24069616  0.89911368  0.20685983    -0.79460
C647        C  0.24647181  0.87072138  0.20859405     1.01150
O648        O  0.21740690  0.87888705  0.16489952    -0.86790
O649        O  0.14486787  0.81979066  0.15903542    -0.83850
C650        C  0.10885800  0.79946734  0.16147076     0.96690
O651        O  0.09479174  0.78860072  0.17921155    -0.83880
O652        O  0.09932898  0.85601238  0.19097926    -0.86480
C653        C  0.11399049  0.89127247  0.19546669     1.01160
O654        O  0.14537616  0.90880504  0.20553061    -0.79300
O655        O  0.19966965  0.91919398  0.17707167    -0.79450
C656        C  0.21404227  0.90873211  0.16300904     1.01130
Cr657      Cr  0.18350852  0.82965412  0.18036382     1.93740
Cr658      Cr  0.11372935  0.82132568  0.20463548     1.93210
Cr659      Cr  0.19031770  0.89890941  0.20520445     1.39100
O660        O  0.16271734  0.85006163  0.19674536    -1.24540
O661        O  0.82057408  0.60969515  0.69990598    -0.86790
O662        O  0.76002006  0.61937414  0.69191742    -0.83840
C663        C  0.75184400  0.62488259  0.71000226     0.96670
O664        O  0.77076676  0.65761566  0.71836563    -0.83870
O665        O  0.83346248  0.72346617  0.73137310    -0.86510
C666        C  0.84937081  0.70903277  0.74214175     1.01200
O667        O  0.86679186  0.69340355  0.73402174    -0.79280
O668        O  0.88177669  0.65106049  0.70613496    -0.79460
C669        C  0.85255720  0.61736158  0.70741470     1.01150
O670        O  0.86308234  0.65646504  0.66458535    -0.86790
O671        O  0.80547756  0.67174250  0.65859846    -0.83850
C672        C  0.78527189  0.68752372  0.66092347     0.96690
O673        O  0.77530925  0.69213360  0.67865239    -0.83880
O674        O  0.84425028  0.75453554  0.69096819    -0.86480
C675        C  0.87961673  0.77323332  0.69574351     1.01160
O676        O  0.89556520  0.75758642  0.70568114    -0.79300
O677        O  0.90468513  0.71347486  0.67735412    -0.79450
C678        C  0.89373215  0.68915959  0.66305602     1.01130
Cr679      Cr  0.81385155  0.64236003  0.67991747     1.93740
Cr680      Cr  0.80782851  0.70520239  0.70417570     1.93210
Cr681      Cr  0.88354787  0.70233475  0.70519892     1.39100
O682        O  0.83524727  0.68338911  0.69634793    -1.24540
O683        O  0.17754479  0.78885769  0.30675918    -0.86790
O684        O  0.23832797  0.85782586  0.31567698    -0.83840
C685        C  0.24769046  0.87135180  0.29769626     0.96670
O686        O  0.22978640  0.88557721  0.28860134    -0.83870
O687        O  0.16785878  0.89085879  0.27522061    -0.86510
C688        C  0.14952509  0.86059748  0.26455841     1.01200
O689        O  0.13099916  0.82773470  0.27272863    -0.79280
O690        O  0.11656509  0.77036323  0.30029038    -0.79460
C691        C  0.14560081  0.76538024  0.29887918     1.01150
O692        O  0.13521336  0.79282807  0.34176369    -0.86790
O693        O  0.19296525  0.86598754  0.34822496    -0.83850
C694        C  0.21419022  0.90186895  0.34577075     0.96690
O695        O  0.22529305  0.91593068  0.32805033    -0.83880
O696        O  0.15793732  0.91180386  0.31567020    -0.86480
C697        C  0.12269354  0.89712730  0.31096303     1.01160
O698        O  0.10499055  0.86510454  0.30142744    -0.79300
O699        O  0.09524802  0.81102622  0.32985798    -0.79450
C700        C  0.10561243  0.79640131  0.34380033     1.01130
Cr701      Cr  0.18448969  0.82794325  0.32693490     1.93740
Cr702      Cr  0.19313193  0.89738734  0.30246369     1.93210
Cr703      Cr  0.11555834  0.82049519  0.30172388     1.39100
O704        O  0.16425899  0.84846805  0.31029226    -1.24540
O705        O  0.77557511  0.61146866  0.80634187    -0.86790
O706        O  0.84528813  0.61987147  0.81415846    -0.83840
C707        C  0.85847389  0.62497449  0.79595787     0.96670
O708        O  0.87234831  0.65755890  0.78750197    -0.83870
O709        O  0.87712561  0.72413190  0.77495054    -0.86510
C710        C  0.84669613  0.70966768  0.76425738     1.01200
O711        O  0.81388243  0.69525929  0.77248227    -0.79280
O712        O  0.75658074  0.65363061  0.80015018    -0.79460
C713        C  0.75170830  0.61970542  0.79875857     1.01150
O714        O  0.78032642  0.65818045  0.84172351    -0.86790
O715        O  0.85296770  0.67267751  0.84754068    -0.83850
C716        C  0.88885094  0.68801656  0.84508357     0.96690
O717        O  0.90293021  0.69098965  0.82735620    -0.83880
O718        O  0.89760680  0.75368875  0.81582197    -0.86480
C719        C  0.88272093  0.77400570  0.81105688     1.01160
O720        O  0.85129115  0.75976659  0.80092923    -0.79300
O721        O  0.79699490  0.71576470  0.82930908    -0.79450
C722        C  0.78291529  0.69112369  0.84344623     1.01130
Cr723      Cr  0.81500826  0.64346663  0.82632706     1.93740
Cr724      Cr  0.88399371  0.70503072  0.80202202     1.93210
Cr725      Cr  0.80668587  0.70459582  0.80130397     1.39100
O726        O  0.83505183  0.68438016  0.80992616    -1.24540
O727        O  0.76229594  0.16670178  0.69265886    -0.86790
O728        O  0.82443252  0.23727830  0.70062884    -0.83840
C729        C  0.85681338  0.26056201  0.70828344     0.96670
O730        O  0.88562004  0.25572616  0.70586452    -0.83870
O731        O  0.87005502  0.19997276  0.73342303    -0.86510
C732        C  0.85207169  0.16802891  0.74245352     1.01200
O733        O  0.83592562  0.13660808  0.73249058    -0.79280
O734        O  0.77255320  0.13869801  0.71904138    -0.79460
C735        C  0.75342640  0.15217394  0.71051742     1.01150
O736        O  0.80605280  0.15826721  0.65925206    -0.86790
O737        O  0.86488205  0.23102368  0.66482558    -0.83850
C738        C  0.89485376  0.22787080  0.66280645     0.96690
O739        O  0.90590775  0.21408050  0.67682794    -0.83880
O740        O  0.89784055  0.16218240  0.70569141    -0.86480
C741        C  0.88136760  0.13034746  0.69601238     1.01160
O742        O  0.84571157  0.11373866  0.69196318    -0.79300
O743        O  0.77728237  0.10769555  0.67950068    -0.79450
C744        C  0.78628455  0.12221790  0.66168929     1.01130
Cr745      Cr  0.81598098  0.19683039  0.68051759     1.93740
Cr746      Cr  0.88616163  0.20574312  0.70485919     1.93210
Cr747      Cr  0.80983380  0.12782979  0.70507294     1.39100
O748        O  0.83738350  0.17675727  0.69668550    -1.24540
O749        O  0.55862648  0.08317193  0.80811486    -0.86790
O750        O  0.48978509  0.07659908  0.81690421    -0.83840
C751        C  0.47540898  0.07191192  0.79911221     0.96670
O752        O  0.46030282  0.03941755  0.79041131    -0.83870
O753        O  0.45644079  0.97392628  0.77489161    -0.86510
C754        C  0.48736909  0.98414712  0.76467029     1.01200
O755        O  0.51903619  0.99602271  0.77408036    -0.79280
O756        O  0.57536913  0.03938753  0.80157334    -0.79460
C757        C  0.58031539  0.07316133  0.79931665     1.01150
O758        O  0.55318687  0.03773083  0.84430283    -0.86790
O759        O  0.48055356  0.02396026  0.85040170    -0.83850
C760        C  0.44439198  0.00770741  0.84834786     0.96690
O761        O  0.42949373  0.00184643  0.83043748    -0.83880
O762        O  0.43344120  0.94013196  0.81616526    -0.86480
C763        C  0.44896114  0.91981546  0.81300791     1.01160
O764        O  0.48142398  0.93378675  0.80405269    -0.79300
O765        O  0.53496770  0.97940226  0.83286666    -0.79450
C766        C  0.54887935  0.00441696  0.84701269     1.01130
Cr767      Cr  0.51875815  0.05185248  0.82854148     1.93740
Cr768      Cr  0.44881768  0.99049585  0.80362117     1.93210
Cr769      Cr  0.52553680  0.98891388  0.80387160     1.39100
O770        O  0.49771316  0.01036349  0.81194113    -1.24540
O771        O  0.55283387  0.03625023  0.66191829    -0.86790
O772        O  0.48065788  0.02228788  0.65608528    -0.83840
C773        C  0.44455897  0.00538124  0.65802452     0.96670
O774        O  0.42943804  0.99937264  0.67588025    -0.83870
O775        O  0.43469809  0.93809348  0.68951538    -0.86510
C776        C  0.45040905  0.91811164  0.69311878     1.01200
O777        O  0.48249070  0.93248357  0.70257238    -0.79280
O778        O  0.53587448  0.97821746  0.67355665    -0.79460
C779        C  0.54938351  0.00313736  0.65934140     1.01150
O780        O  0.55753975  0.08137389  0.69840786    -0.86790
O781        O  0.48822203  0.07399289  0.69023569    -0.83850
C782        C  0.47486164  0.06860540  0.70837025     0.96690
O783        O  0.46015960  0.03566340  0.71643548    -0.83880
O784        O  0.45655474  0.97077109  0.73103999    -0.86480
C785        C  0.48758081  0.98334943  0.74147312     1.01160
O786        O  0.51958032  0.99602563  0.73220527    -0.79300
O787        O  0.57634432  0.03896663  0.70408647    -0.79450
C788        C  0.58093816  0.07265182  0.70622238     1.01130
Cr789      Cr  0.51815924  0.05013312  0.67798567     1.93740
Cr790      Cr  0.44892181  0.98766803  0.70252759     1.93210
Cr791      Cr  0.52639641  0.98801099  0.70246643     1.39100
O792        O  0.49784056  0.00845629  0.69428681    -1.24540
O793        O  0.00816090  0.49522565  0.15598005    -0.86790
O794        O  0.02230099  0.56731108  0.16180195    -0.83840
C795        C  0.98933884  0.56436984  0.15938059     0.96670
O796        O  0.96472950  0.55144897  0.17373680    -0.83870
O797        O  0.91903354  0.49880558  0.20252517    -0.86510
C798        C  0.90349709  0.46635297  0.19344189     1.01200
O799        O  0.92219381  0.44919746  0.18996464    -0.79280
O800        O  0.98357379  0.44362951  0.17559930    -0.79460
C801        C  0.99080931  0.45912654  0.15779701     1.01150
O802        O  0.05931786  0.50207396  0.19022639    -0.86790
O803        O  0.06738582  0.57152842  0.19845435    -0.83850
C804        C  0.05910435  0.59519062  0.20632541     0.96690
O805        O  0.02570435  0.59116629  0.20413052    -0.83880
O806        O  0.98238328  0.53445070  0.23222365    -0.86480
C807        C  0.96928660  0.50238169  0.24147161     1.01160
O808        O  0.95631588  0.47130031  0.23104968    -0.79300
O809        O  0.02043634  0.47361343  0.21617767    -0.79450
C810        C  0.05351742  0.48825649  0.20826607     1.01130
Cr811      Cr  0.03587146  0.53239710  0.17796493     1.93740
Cr812      Cr  0.97452845  0.54167908  0.20252069     1.93210
Cr813      Cr  0.97244824  0.46322143  0.20244309     1.39100
O814        O  0.99401936  0.51234374  0.19420585    -1.24540
O815        O  0.02329759  0.56739732  0.34432162    -0.86790
O816        O  0.00907726  0.49458781  0.35039526    -0.83840
C817        C  0.99280700  0.45844112  0.34826834     0.96670
O818        O  0.98705046  0.44366546  0.33032490    -0.83870
O819        O  0.92554054  0.44790191  0.31602518    -0.86510
C820        C  0.90531044  0.46346233  0.31277235     1.01200
O821        O  0.91947610  0.49602479  0.30390079    -0.79280
O822        O  0.96500775  0.54932659  0.33287962    -0.79460
C823        C  0.98999122  0.56311059  0.34704083     1.01150
O824        O  0.06888854  0.57273927  0.30824870    -0.86790
O825        O  0.06179231  0.50362966  0.31696831    -0.83850
C826        C  0.05711836  0.48934196  0.29915090     0.96690
O827        O  0.02474338  0.47457651  0.29036794    -0.83880
O828        O  0.95950448  0.47108796  0.27483470    -0.86480
C829        C  0.97001758  0.50210290  0.26465507     1.01160
O830        O  0.98207289  0.53375914  0.27410305    -0.79300
O831        O  0.02536091  0.58984271  0.30174626    -0.79450
C832        C  0.05910835  0.59465598  0.29951974     1.01130
Cr833      Cr  0.03727800  0.53283721  0.32859770     1.93740
Cr834      Cr  0.97588755  0.46319535  0.30353883     1.93210
Cr835      Cr  0.97470565  0.54007761  0.30388151     1.39100
O836        O  0.99589959  0.51204937  0.31193758    -1.24540
O837        O  0.99063540  0.53205586  0.65597542    -0.86790
O838        O  0.97653841  0.45988919  0.66193157    -0.83840
C839        C  0.00966571  0.46331168  0.65938514     0.96670
O840        O  0.03460796  0.47701388  0.67358518    -0.83870
O841        O  0.08024380  0.53066774  0.70254308    -0.86510
C842        C  0.09461541  0.56280050  0.69312498     1.01200
O843        O  0.07461168  0.57843449  0.68946853    -0.79280
O844        O  0.01326137  0.58329264  0.67575796    -0.79460
C845        C  0.00748445  0.56813701  0.65790486     1.01150
O846        O  0.93887898  0.52487605  0.69006406    -0.86790
O847        O  0.93139838  0.45565641  0.69836937    -0.83850
C848        C  0.94006128  0.43229897  0.70626831     0.96690
O849        O  0.97369216  0.43671467  0.70410427    -0.83880
O850        O  0.01671245  0.49340416  0.73216383    -0.86480
C851        C  0.02943999  0.52537413  0.74144874     1.01160
O852        O  0.04195684  0.55641282  0.73102450    -0.79300
O853        O  0.97707235  0.55268352  0.71635031    -0.79450
C854        C  0.94419812  0.53814586  0.70822848     1.01130
Cr855      Cr  0.96268086  0.49476281  0.67789703     1.93740
Cr856      Cr  0.02475101  0.48660767  0.70245386     1.93210
Cr857      Cr  0.02504033  0.56402020  0.70246712     1.39100
O858        O  0.00432474  0.51511935  0.69422705    -1.24540
O859        O  0.97511393  0.45955614  0.84429566    -0.86790
O860        O  0.98868470  0.53208956  0.85036718    -0.83840
C861        C  0.00515289  0.56826215  0.84832689     0.96670
O862        O  0.01114988  0.58318676  0.83043209    -0.83870
O863        O  0.07293914  0.57929509  0.81615930    -0.86510
C864        C  0.09325587  0.56379532  0.81292037     1.01200
O865        O  0.07915827  0.53126455  0.80402497    -0.79280
O866        O  0.03346685  0.47773655  0.83290570    -0.79460
C867        C  0.00844814  0.46395051  0.84706589     1.01150
O868        O  0.92966711  0.45373537  0.80803410    -0.86790
O869        O  0.93613207  0.52267920  0.81675023    -0.83850
C870        C  0.94103491  0.53738094  0.79903702     0.96690
O871        O  0.97360524  0.55258723  0.79042028    -0.83880
O872        O  0.03902399  0.55637837  0.77490650    -0.86480
C873        C  0.02875229  0.52548312  0.76465403     1.01160
O874        O  0.01692368  0.49378002  0.77403728    -0.79300
O875        O  0.97359479  0.43718396  0.80151472    -0.79450
C876        C  0.93969966  0.43196318  0.79932012     1.01130
Cr877      Cr  0.96093847  0.49382783  0.82845780     1.93740
Cr878      Cr  0.02248679  0.56391216  0.80363565     1.93210
Cr879      Cr  0.02400719  0.48715732  0.80385236     1.39100
O880        O  0.00251897  0.51495463  0.81190889    -1.24540
O881        O  0.43971155  0.52588249  0.19797887    -0.86790
O882        O  0.50835122  0.58752305  0.18938810    -0.83840
C883        C  0.52247366  0.59691061  0.20727037     0.96670
O884        O  0.53750262  0.57935854  0.21589104    -0.83870
O885        O  0.54159476  0.51764294  0.23113685    -0.86510
C886        C  0.51084121  0.49742524  0.24153778     1.01200
O887        O  0.47880107  0.47830545  0.23227952    -0.79280
O888        O  0.42174984  0.46509947  0.20437665    -0.79460
C889        C  0.41694990  0.49412719  0.20632337     1.01150
O890        O  0.44463443  0.48521341  0.16175039    -0.86790
O891        O  0.51723082  0.54357680  0.15582192    -0.83850
C892        C  0.55334693  0.56333751  0.15788570     0.96690
O893        O  0.56820504  0.57271236  0.17577943    -0.83880
O894        O  0.56387588  0.50678676  0.18982283    -0.86480
C895        C  0.54827541  0.47106162  0.19323012     1.01160
O896        O  0.51587336  0.45292564  0.20231928    -0.79300
O897        O  0.46197608  0.44459525  0.17351549    -0.79450
C898        C  0.44822566  0.45567143  0.15926350     1.01130
Cr899      Cr  0.47922048  0.53381953  0.17760575     1.93740
Cr900      Cr  0.54888625  0.54194444  0.20250956     1.93210
Cr901      Cr  0.47175784  0.46413170  0.20243648     1.39100
O902        O  0.49993436  0.51318628  0.19423122    -1.24540
O903        O  0.48821388  0.44100253  0.81599555    -0.86790
O904        O  0.55783597  0.50355302  0.80798547    -0.83840
C905        C  0.57997093  0.53537634  0.79946450     0.96670
O906        O  0.57507693  0.56424294  0.80175639    -0.83870
O907        O  0.51877302  0.55100644  0.77423496    -0.86510
C908        C  0.48717610  0.53100281  0.76478984     1.01200
O909        O  0.45599217  0.51199336  0.77506901    -0.79280
O910        O  0.45942991  0.45093875  0.78999259    -0.79460
C911        C  0.47416240  0.43267382  0.79800841     1.01150
O912        O  0.47986032  0.48440042  0.85032020    -0.86790
O913        O  0.55191069  0.54303153  0.84467049    -0.83850
C914        C  0.54812297  0.57247382  0.84733598     0.96690
O915        O  0.53481344  0.58403313  0.83306923    -0.83880
O916        O  0.48123545  0.57672338  0.80427391    -0.86480
C917        C  0.44887421  0.55867452  0.81343351     1.01160
O918        O  0.43320172  0.52289227  0.81664892    -0.79300
O919        O  0.42858455  0.45683580  0.83050481    -0.79450
C920        C  0.44371011  0.46557034  0.84838375     1.01130
Cr921      Cr  0.51773948  0.49472382  0.82836895     1.93740
Cr922      Cr  0.52525579  0.56514828  0.80403465     1.93210
Cr923      Cr  0.44812424  0.48777718  0.80376388     1.39100
O924        O  0.49706442  0.51600795  0.81208021    -1.24540
O925        O  0.51813918  0.00380702  0.35030642    -0.86790
O926        O  0.44530975  0.98975961  0.34411976    -0.83840
C927        C  0.44968144  0.02308123  0.34685811     0.96670
O928        O  0.46363842  0.04812504  0.33274545    -0.83870
O929        O  0.51708654  0.09358655  0.30387670    -0.86510
C930        C  0.54952238  0.10751146  0.31286152     1.01200
O931        O  0.56500973  0.08720110  0.31602200    -0.79280
O932        O  0.56913002  0.02571910  0.33029850    -0.79460
C933        C  0.55431145  0.01993744  0.34823022     1.01150
O934        O  0.50900152  0.95112220  0.31693286    -0.86790
O935        O  0.43993970  0.94430135  0.30800864    -0.83850
C936        C  0.41810732  0.95422079  0.29927245     0.96690
O937        O  0.42304760  0.98799602  0.30153258    -0.83880
O938        O  0.47924455  0.03115500  0.27398041    -0.86480
C939        C  0.51088316  0.04304802  0.26455108     1.01160
O940        O  0.54186390  0.05337655  0.27475302    -0.79300
O941        O  0.53821446  0.98805720  0.29033084    -0.79450
C942        C  0.52344804  0.95574846  0.29917139     1.01130
Cr943      Cr  0.47985047  0.97572438  0.32845460     1.93740
Cr944      Cr  0.47292180  0.03847481  0.30375881     1.93210
Cr945      Cr  0.54966064  0.03693608  0.30348269     1.39100
O946        O  0.50079569  0.01709169  0.31182412    -1.24540
O947        O  0.51055440  0.58610187  0.31621139    -0.86790
O948        O  0.44089017  0.52363580  0.30823735    -0.83840
C949        C  0.41871670  0.49186141  0.29967398     0.96670
O950        O  0.42362307  0.46297979  0.30184030    -0.83870
O951        O  0.47983300  0.47628064  0.27421766    -0.86510
C952        C  0.51141876  0.49626267  0.26476382     1.01200
O953        O  0.54262688  0.51521477  0.27502730    -0.79280
O954        O  0.53917203  0.57620356  0.29010144    -0.79460
C955        C  0.52445040  0.59443001  0.29819504     1.01150
O956        O  0.51907254  0.54256717  0.35037944    -0.86790
O957        O  0.44696489  0.48398682  0.34475506    -0.83850
C958        C  0.45066949  0.45447925  0.34731429     0.96690
O959        O  0.46391474  0.44295452  0.33298736    -0.83880
O960        O  0.51742838  0.45039906  0.30409096    -0.86480
C961        C  0.54985604  0.46842195  0.31319402     1.01160
O962        O  0.56554470  0.50419055  0.31648846    -0.79300
O963        O  0.57025455  0.57025472  0.33050968    -0.79450
C964        C  0.55521037  0.56147273  0.34840215     1.01130
Cr965      Cr  0.48108632  0.53234625  0.32851567     1.93740
Cr966      Cr  0.47342262  0.46200201  0.30398978     1.93210
Cr967      Cr  0.55057860  0.53935628  0.30374838     1.39100
O968        O  0.50167077  0.51110268  0.31211175    -1.24540
O969        O  0.44080872  0.81471852  0.88216733    -0.86790
O970        O  0.38433559  0.83312582  0.88393783    -0.83840
C971        C  0.36258073  0.84466697  0.87693987     0.96670
O972        O  0.34425876  0.83144959  0.86022739    -0.83870
O973        O  0.39796658  0.86827002  0.83050499    -0.86510
C974        C  0.42875637  0.87971368  0.82047434     1.01200
O975        O  0.44215761  0.85730559  0.81721617    -0.79280
O976        O  0.46790556  0.85131140  0.85514599    -0.79460
C977        C  0.46740458  0.84551806  0.87422932     1.01150
O978        O  0.38468795  0.74015545  0.86548005    -0.86790
O979        O  0.32675797  0.75620365  0.87112970    -0.83850
C980        C  0.30723850  0.74246145  0.85485632     0.96690
O981        O  0.31886778  0.75977899  0.83800052    -0.83880
O982        O  0.36728358  0.79742034  0.80663578    -0.86480
C983        C  0.38138739  0.77632499  0.80141608     1.01160
O984        O  0.40651544  0.77457776  0.81249143    -0.79300
O985        O  0.43991720  0.76965595  0.84879225    -0.79450
C986        C  0.41303743  0.73970589  0.85733246     1.01130
Cr987      Cr  0.38481601  0.78728986  0.87358237     1.93740
Cr988      Cr  0.35960770  0.81355383  0.83486081     1.93210
Cr989      Cr  0.43597093  0.81250411  0.83449774     1.39100
O990        O  0.39341996  0.80438102  0.84760609    -1.24540
O991        O  0.27314475  0.62618882  0.86578807    -0.86790
O992        O  0.25808185  0.68562958  0.87103228    -0.83840
C993        C  0.27110598  0.70548300  0.85480467     0.96670
O994        O  0.25395285  0.69356198  0.83790667    -0.83870
O995        O  0.21675365  0.64428449  0.80636632    -0.86510
C996        C  0.23772310  0.62957511  0.80181757     1.01200
O997        O  0.23862912  0.60473962  0.81345363    -0.79280
O998        O  0.24126827  0.57087405  0.84932095    -0.79460
C999        C  0.27212219  0.59734900  0.85727534     1.01150
O1000       O  0.19778376  0.57171618  0.88233347    -0.86790
O1001       O  0.18100119  0.62940275  0.88395447    -0.83850
C1002       C  0.16907213  0.65068063  0.87668072     0.96690
O1003       O  0.18194267  0.66844901  0.85977210    -0.83880
O1004       O  0.14527966  0.61495296  0.83015068    -0.86480
C1005       C  0.13349675  0.58401678  0.82025409     1.01160
O1006       O  0.15574165  0.57044894  0.81707821    -0.79300
O1007       O  0.16038625  0.54516917  0.85545123    -0.79450
C1008       C  0.16659868  0.54550534  0.87448331     1.01130
Cr1009     Cr  0.22630051  0.62764918  0.87367176     1.93740
Cr1010     Cr  0.20019371  0.65283327  0.83457504     1.93210
Cr1011     Cr  0.19969106  0.57598689  0.83487629     1.39100
O1012       O  0.20888611  0.61900194  0.84770054    -1.24540
O1013       O  0.38484190  0.58154965  0.88451226    -0.86790
O1014       O  0.44137196  0.65644439  0.88275881    -0.83840
C1015       C  0.46752224  0.65138583  0.87492665     0.96670
O1016       O  0.46777713  0.64543259  0.85594333    -0.83870
O1017       O  0.44246728  0.61472707  0.81793690    -0.86510
C1018       C  0.42883127  0.57886848  0.82102077     1.01200
O1019       O  0.39789005  0.55968268  0.83098439    -0.79280
O1020       O  0.34432571  0.54323697  0.86083541    -0.79460
C1021       C  0.36286741  0.54833406  0.87747677     1.01150
O1022       O  0.32776984  0.60124906  0.87203333    -0.86790
O1023       O  0.38505624  0.67470240  0.86607620    -0.83850
C1024       C  0.41334774  0.70323873  0.85778992     0.96690
O1025       O  0.44073374  0.70007581  0.84993875    -0.83880
O1026       O  0.40728967  0.66237513  0.81416128    -0.86480
C1027       C  0.38313316  0.63622365  0.80249860     1.01160
O1028       O  0.36816309  0.60074403  0.80730215    -0.79300
O1029       O  0.31806721  0.58903646  0.83896140    -0.79450
C1030       C  0.30750566  0.59528826  0.85607580     1.01130
Cr1031     Cr  0.38540610  0.62789631  0.87431428     1.93740
Cr1032     Cr  0.43645155  0.65321363  0.83553913     1.93210
Cr1033     Cr  0.35956177  0.57634482  0.83549939     1.39100
O1034       O  0.39365531  0.61908199  0.84839603    -1.24540
O1035       O  0.34800638  0.62331870  0.77102672    -0.86790
O1036       O  0.28260289  0.62608499  0.77961282    -0.83840
C1037       C  0.26214415  0.64145932  0.78307355     0.96670
O1038       O  0.26315057  0.66692988  0.77096925    -0.83870
O1039       O  0.33154788  0.73296405  0.77914923    -0.86510
C1040       C  0.36741905  0.75255630  0.78256549     1.01200
O1041       O  0.39131716  0.75111894  0.77029177    -0.79280
O1042       O  0.38745518  0.68365137  0.77977185    -0.79460
C1043       C  0.37230885  0.64805675  0.78339396     1.01150
O1044       O  0.33293877  0.62557061  0.72739183    -0.86790
O1045       O  0.26421607  0.62098976  0.73600453    -0.83850
C1046       C  0.26182437  0.64448192  0.72382423     0.96690
O1047       O  0.28042638  0.68042907  0.72719141    -0.83880
O1048       O  0.34578286  0.74973460  0.73515553    -0.86480
C1049       C  0.37164499  0.75084575  0.72327880     1.01160
O1050       O  0.38743877  0.73100364  0.72705834    -0.79300
O1051       O  0.39240005  0.66785720  0.73634749    -0.79450
C1052       C  0.36881397  0.64237105  0.72401635     1.01130
Cr1053     Cr  0.30892169  0.62824779  0.75350880     1.93740
Cr1054     Cr  0.30739291  0.70545661  0.75311882     1.93210
Cr1055     Cr  0.38540482  0.70622242  0.75336150     1.39100
O1056       O  0.33379614  0.67997330  0.75325610    -1.24540
O1057       O  0.38633674  0.83078473  0.62218511    -0.86790
O1058       O  0.44307011  0.81277578  0.62422376    -0.83840
C1059       C  0.46950594  0.84378084  0.63213466     0.96670
O1060       O  0.46983670  0.84988500  0.65115880    -0.83870
O1061       O  0.44394484  0.85556992  0.68906346    -0.86510
C1062       C  0.43060086  0.87798047  0.68566176     1.01200
O1063       O  0.39994586  0.86644666  0.67549979    -0.79280
O1064       O  0.34620034  0.82920278  0.64588776    -0.79460
C1065       C  0.36456272  0.84233029  0.62916560     1.01150
O1066       O  0.32886419  0.75407386  0.63513732    -0.86790
O1067       O  0.38678538  0.73819711  0.64109392    -0.83850
C1068       C  0.41518675  0.73799444  0.64931604     0.96690
O1069       O  0.44242744  0.76842142  0.65727839    -0.83880
O1070       O  0.40814270  0.77256148  0.69290630    -0.86480
C1071       C  0.38378066  0.77459093  0.70444649     1.01160
O1072       O  0.36994351  0.79615773  0.69973322    -0.79300
O1073       O  0.32100224  0.75778999  0.66828274    -0.79450
C1074       C  0.30928541  0.74045929  0.65140704     1.01130
Cr1075     Cr  0.38693013  0.78518552  0.63267805     1.93740
Cr1076     Cr  0.43802795  0.81096763  0.67157613     1.93210
Cr1077     Cr  0.36168609  0.81170776  0.67134975     1.39100
O1078       O  0.39552113  0.80268177  0.65853063    -1.24540
O1079       O  0.20018196  0.56918039  0.62470304    -0.86790
O1080       O  0.18303100  0.62646862  0.62223266    -0.83840
C1081       C  0.17116957  0.64809979  0.62906177     0.96670
O1082       O  0.18408568  0.66657111  0.64573020    -0.83870
O1083       O  0.14653583  0.61315717  0.67545251    -0.86510
C1084       C  0.13479892  0.58267999  0.68580492     1.01200
O1085       O  0.15707489  0.56940378  0.68952720    -0.79280
O1086       O  0.16295544  0.54304781  0.65167783    -0.79460
C1087       C  0.16910784  0.54306728  0.63264904     1.01150
O1088       O  0.27514499  0.62404239  0.64107176    -0.86790
O1089       O  0.26022419  0.68336991  0.63526275    -0.83850
C1090       C  0.27292502  0.70363899  0.65140743     0.96690
O1091       O  0.25521696  0.69227855  0.66819134    -0.83880
O1092       O  0.21713792  0.64416349  0.69961709    -0.86480
C1093       C  0.23800502  0.62997074  0.70509043     1.01160
O1094       O  0.23947676  0.60433487  0.69434969    -0.79300
O1095       O  0.24380522  0.56986527  0.65863553    -0.79450
C1096       C  0.27423008  0.59562129  0.64999157     1.01130
Cr1097     Cr  0.22839368  0.62525877  0.63295494     1.93740
Cr1098     Cr  0.20144561  0.65144880  0.67125795     1.93210
Cr1099     Cr  0.20161472  0.57485568  0.67239833     1.39100
O1100       O  0.21080857  0.61738237  0.65891566    -1.24540
O1101       O  0.44343038  0.65460478  0.62461747    -0.86790
O1102       O  0.38697100  0.57954464  0.62267521    -0.83840
C1103       C  0.36471866  0.54620453  0.62947566     0.96670
O1104       O  0.34611583  0.54102658  0.64609138    -0.83870
O1105       O  0.39923111  0.55743999  0.67611402    -0.86510
C1106       C  0.43018551  0.57654329  0.68605328     1.01200
O1107       O  0.44386301  0.61232325  0.68938060    -0.79280
O1108       O  0.47004351  0.64444902  0.65160287    -0.79460
C1109       C  0.46985156  0.65015993  0.63254908     1.01150
O1110       O  0.38717492  0.67282277  0.64109564    -0.86790
O1111       O  0.32981368  0.59948883  0.63511260    -0.83850
C1112       C  0.30941345  0.59332768  0.65103987     0.96690
O1113       O  0.31960458  0.58654606  0.66807403    -0.83880
O1114       O  0.36823707  0.59760016  0.69974320    -0.86480
C1115       C  0.38295041  0.63272481  0.70519747     1.01160
O1116       O  0.40853192  0.65959245  0.69433720    -0.79300
O1117       O  0.44196972  0.69821138  0.65818392    -0.79450
C1118       C  0.41518608  0.70138585  0.64955262     1.01130
Cr1119     Cr  0.38747966  0.62596617  0.63299302     1.93740
Cr1120     Cr  0.36093831  0.57395310  0.67153137     1.93210
Cr1121     Cr  0.43790447  0.65118387  0.67226382     1.39100
O1122       O  0.39531178  0.61709391  0.65901665    -1.24540
O1123       O  0.81700055  0.44880253  0.12257350    -0.86790
O1124       O  0.79872960  0.37395400  0.12371229    -0.83840
C1125       C  0.82965328  0.37818460  0.13155582     0.96670
O1126       O  0.83547786  0.38310774  0.15062036    -0.83870
O1127       O  0.84073353  0.41281033  0.18866568    -0.86510
C1128       C  0.86346894  0.44871481  0.18619599     1.01200
O1129       O  0.85254379  0.46930083  0.17695484    -0.79280
O1130       O  0.81616037  0.48679337  0.14693448    -0.79460
C1131       C  0.82877525  0.48189165  0.12992250     1.01150
O1132       O  0.74055693  0.42956811  0.13540598    -0.86790
O1133       O  0.72392377  0.35537970  0.14061989    -0.83850
C1134       C  0.72357071  0.32644009  0.14848615     0.96690
O1135       O  0.75392419  0.32924178  0.15630985    -0.83880
O1136       O  0.75788667  0.36618742  0.19257483    -0.86480
C1137       C  0.75991451  0.39214688  0.20448329     1.01160
O1138       O  0.78120194  0.42769705  0.20004919    -0.79300
O1139       O  0.74384839  0.44001477  0.16864380    -0.79450
C1140       C  0.72667763  0.43484630  0.15174512     1.01130
Cr1141     Cr  0.77130127  0.40242610  0.13265289     1.93740
Cr1142     Cr  0.79635290  0.37535016  0.17105447     1.93210
Cr1143     Cr  0.79769702  0.45284119  0.17203576     1.39100
O1144       O  0.78864619  0.41040733  0.15858123    -1.24540
O1145       O  0.55543938  0.37275692  0.12452026    -0.86790
O1146       O  0.61308253  0.44715267  0.12237744    -0.83840
C1147       C  0.63456068  0.48053958  0.12936906     0.96670
O1148       O  0.65257045  0.48581510  0.14618675    -0.83870
O1149       O  0.59902373  0.46968076  0.17579922    -0.86510
C1150       C  0.56834188  0.45086965  0.18595377     1.01200
O1151       O  0.55492096  0.41525469  0.18950004    -0.79280
O1152       O  0.52895355  0.38360324  0.15145709    -0.79460
C1153       C  0.52915205  0.37756209  0.13241845     1.01150
O1154       O  0.60976732  0.35192662  0.14108250    -0.86790
O1155       O  0.66946351  0.42631629  0.13556743    -0.83850
C1156       C  0.68966311  0.43397112  0.15174024     0.96690
O1157       O  0.67804957  0.43996921  0.16852463    -0.83880
O1158       O  0.62961953  0.42916648  0.19982511    -0.86480
C1159       C  0.61531638  0.39395835  0.20504356     1.01160
O1160       O  0.58949647  0.36726191  0.19420864    -0.79300
O1161       O  0.55529388  0.32912938  0.15837871    -0.79450
C1162       C  0.58112507  0.32436698  0.14985994     1.01130
Cr1163     Cr  0.61140383  0.40024695  0.13303214     1.93740
Cr1164     Cr  0.63717966  0.45284348  0.17157360     1.93210
Cr1165     Cr  0.56040247  0.37628261  0.17225642     1.39100
O1166       O  0.60318706  0.40968449  0.15898642    -1.24540
O1167       O  0.64007438  0.21451725  0.12374209    -0.86790
O1168       O  0.56504013  0.19578813  0.12225258    -0.83840
C1169       C  0.53177202  0.18415523  0.12932720     0.96670
O1170       O  0.52650615  0.19702343  0.14611470    -0.83870
O1171       O  0.54350937  0.16058295  0.17650442    -0.86510
C1172       C  0.56392977  0.14950959  0.18586468     1.01200
O1173       O  0.59980756  0.17208399  0.18845047    -0.79280
O1174       O  0.63070571  0.17803888  0.15071853    -0.79460
C1175       C  0.63572312  0.18367061  0.13164808     1.01150
O1176       O  0.65820314  0.28913237  0.14035662    -0.86790
O1177       O  0.58458117  0.27254927  0.13477643    -0.83850
C1178       C  0.57856873  0.28666982  0.15078966     0.96690
O1179       O  0.57179133  0.26943478  0.16776802    -0.83880
O1180       O  0.58398411  0.23203579  0.19924845    -0.86480
C1181       C  0.61913978  0.25238047  0.20454355     1.01160
O1182       O  0.64605352  0.25433440  0.19344005    -0.79300
O1183       O  0.68415089  0.25985472  0.15700834    -0.79450
C1184       C  0.68700425  0.28981583  0.14859840     1.01130
Cr1185     Cr  0.61135747  0.24169078  0.13242252     1.93740
Cr1186     Cr  0.55975144  0.21551120  0.17133821     1.93210
Cr1187     Cr  0.63766948  0.21684236  0.17131172     1.39100
O1188       O  0.60287484  0.22475316  0.15844134    -1.24540
O1189       O  0.65127946  0.40352845  0.27053497    -0.86790
O1190       O  0.71664989  0.40108390  0.27909679    -0.83840
C1191       C  0.73700200  0.38571564  0.28276813     0.96670
O1192       O  0.73602292  0.36012159  0.27080862    -0.83870
O1193       O  0.66746989  0.29469979  0.27965931    -0.86510
C1194       C  0.63154213  0.27465208  0.28276976     1.01200
O1195       O  0.60773094  0.27555685  0.27022193    -0.79280
O1196       O  0.61114505  0.34320375  0.27919732    -0.79460
C1197       C  0.62661629  0.37886653  0.28283785     1.01150
O1198       O  0.66580709  0.40060178  0.22682612    -0.86790
O1199       O  0.73496583  0.40458080  0.23532140    -0.83850
C1200       C  0.73643285  0.38006513  0.22343975     0.96690
O1201       O  0.71715560  0.34444786  0.22730928    -0.83880
O1202       O  0.65353486  0.27658110  0.23590483    -0.86480
C1203       C  0.62853317  0.27543147  0.22344514     1.01160
O1204       O  0.61159967  0.29437499  0.22682756    -0.79300
O1205       O  0.60635700  0.35802301  0.23575648    -0.79450
C1206       C  0.62984977  0.38391918  0.22358671     1.01130
Cr1207     Cr  0.69021092  0.39824556  0.25293148     1.93740
Cr1208     Cr  0.69142719  0.32107307  0.25344735     1.93210
Cr1209     Cr  0.61342602  0.32000709  0.25299264     1.39100
O1210       O  0.66507184  0.34649199  0.25305925    -1.24540
O1211       O  0.72547962  0.40088042  0.36549338    -0.86790
O1212       O  0.74061182  0.34151244  0.37078793    -0.83840
C1213       C  0.72761624  0.32160911  0.35456818     0.96670
O1214       O  0.74476959  0.33349535  0.33766434    -0.83870
O1215       O  0.78213244  0.38292266  0.30617215    -0.86510
C1216       C  0.76116828  0.39760013  0.30157422     1.01200
O1217       O  0.76002759  0.42231164  0.31322104    -0.79280
O1218       O  0.75739791  0.45623268  0.34909752    -0.79460
C1219       C  0.72652895  0.42972371  0.35698825     1.01150
O1220       O  0.80074064  0.45540231  0.38208558    -0.86790
O1221       O  0.81758851  0.39768931  0.38378164    -0.83850
C1222       C  0.82941441  0.37627834  0.37654388     0.96690
O1223       O  0.81668162  0.35864526  0.35958148    -0.83880
O1224       O  0.85340820  0.41233700  0.33001825    -0.86480
C1225       C  0.86510668  0.44320837  0.32007884     1.01160
O1226       O  0.84280390  0.45665854  0.31684284    -0.79300
O1227       O  0.83817226  0.48196268  0.35521634    -0.79450
C1228       C  0.83188524  0.48165598  0.37423655     1.01130
Cr1229     Cr  0.77231457  0.39946871  0.37343750     1.93740
Cr1230     Cr  0.79853632  0.37431745  0.33437780     1.93210
Cr1231     Cr  0.79891114  0.45110112  0.33464997     1.39100
O1232       O  0.78976349  0.40811299  0.34748311    -1.24540
O1233       O  0.61385823  0.44563529  0.38408518    -0.86790
O1234       O  0.55742505  0.37062222  0.38236703    -0.83840
C1235       C  0.53118319  0.37553773  0.37456253     0.96670
O1236       O  0.53091922  0.38151804  0.35557942    -0.83870
O1237       O  0.55622254  0.41232929  0.31757333    -0.86510
C1238       C  0.56995418  0.44821231  0.32064490     1.01200
O1239       O  0.60102187  0.46742449  0.33050420    -0.79280
O1240       O  0.65444980  0.48389537  0.36042753    -0.79460
C1241       C  0.63597281  0.47884667  0.37710036     1.01150
O1242       O  0.67096247  0.42603710  0.37166684    -0.86790
O1243       O  0.61380991  0.35254448  0.36570345    -0.83850
C1244       C  0.58550959  0.32395240  0.35745689     0.96690
O1245       O  0.55818493  0.32706257  0.34948368    -0.83880
O1246       O  0.59146398  0.36471573  0.31361489    -0.86480
C1247       C  0.61573867  0.39081802  0.30196385     1.01160
O1248       O  0.63081486  0.42630366  0.30681668    -0.79300
O1249       O  0.68066758  0.43792274  0.33858008    -0.79450
C1250       C  0.69119346  0.43179165  0.35572481     1.01130
Cr1251     Cr  0.61335830  0.39930029  0.37390224     1.93740
Cr1252     Cr  0.56232411  0.37385325  0.33510293     1.93210
Cr1253     Cr  0.63927504  0.45071053  0.33506113     1.39100
O1254       O  0.60511961  0.40802064  0.34796071    -1.24540
O1255       O  0.55791990  0.21242698  0.38205936    -0.86790
O1256       O  0.61456654  0.19419600  0.38392084    -0.83840
C1257       C  0.63634324  0.18265702  0.37692787     0.96670
O1258       O  0.65446770  0.19566788  0.36015128    -0.83870
O1259       O  0.60042009  0.15877408  0.33052551    -0.86510
C1260       C  0.56978397  0.14753000  0.32037705     1.01200
O1261       O  0.55661822  0.17008920  0.31704404    -0.79280
O1262       O  0.53075427  0.17586274  0.35499797    -0.79460
C1263       C  0.53123843  0.18168870  0.37407933     1.01150
O1264       O  0.61406490  0.28703206  0.36534004    -0.86790
O1265       O  0.67200223  0.27104850  0.37096513    -0.83850
C1266       C  0.69149985  0.28462683  0.35466918     0.96690
O1267       O  0.67985355  0.26715884  0.33784762    -0.83880
O1268       O  0.63116873  0.22942715  0.30662437    -0.86480
C1269       C  0.61739310  0.25084073  0.30151338     1.01160
O1270       O  0.59238727  0.25277669  0.31259283    -0.79300
O1271       O  0.55871919  0.25741411  0.34879191    -0.79450
C1272       C  0.58571645  0.28745465  0.35718550     1.01130
Cr1273     Cr  0.61395440  0.23993537  0.37349909     1.93740
Cr1274     Cr  0.63898080  0.21342231  0.33480378     1.93210
Cr1275     Cr  0.56276780  0.21472396  0.33444013     1.39100
O1276       O  0.60527861  0.22273970  0.34755631    -1.24540
O1277       O  0.95293469  0.64534342  0.11243687    -0.86790
O1278       O  0.87640415  0.59482918  0.10755232    -0.83840
C1279       C  0.87066277  0.59959584  0.08899060     0.96670
O1280       O  0.88419635  0.58813759  0.07486237    -0.83870
O1281       O  0.93577768  0.57307771  0.05426898    -0.86510
C1282       C  0.96919036  0.60297394  0.05284502     1.01200
O1283       O  0.99104323  0.61538975  0.06844357    -0.79280
O1284       O  0.00649969  0.64283060  0.10828178    -0.79460
C1285       C  0.98913948  0.66182912  0.11123448     1.01150
O1286       O  0.96060512  0.59399076  0.14007351    -0.86790
O1287       O  0.88701029  0.53958994  0.12981255    -0.83850
C1288       C  0.85927005  0.51510339  0.11922190     0.96690
O1289       O  0.85798231  0.51862051  0.09982688    -0.83880
O1290       O  0.91152089  0.50582546  0.08113960    -0.86480
C1291       C  0.94372065  0.50703093  0.08115997     1.01160
O1292       O  0.97513563  0.53906413  0.08266501    -0.79300
O1293       O  0.98674294  0.56601491  0.12259613    -0.79450
C1294       C  0.97889790  0.57570192  0.13965093     1.01130
Cr1295     Cr  0.92074155  0.59209007  0.12043642     1.93740
Cr1296     Cr  0.90051383  0.54878533  0.07905511     1.93210
Cr1297     Cr  0.98557767  0.58962677  0.09559279     1.39100
O1298       O  0.93568419  0.57656273  0.09824788    -1.24540
O1299       O  0.63501664  0.53637492  0.37711803    -0.86790
O1300       O  0.61560410  0.59121985  0.36670151    -0.83840
C1301       C  0.57905981  0.57230386  0.36749611     0.96670
O1302       O  0.56241863  0.56174149  0.38473972    -0.83870
O1303       O  0.54718202  0.53617477  0.42460396    -0.86510
C1304       C  0.54649024  0.50408162  0.42570835     1.01200
O1305       O  0.57748340  0.50286719  0.42577911    -0.79280
O1306       O  0.64374972  0.51582748  0.40711174    -0.79460
C1307       C  0.63857000  0.51205946  0.38774520     1.01150
O1308       O  0.70114840  0.59186939  0.39916865    -0.86790
O1309       O  0.67479259  0.64214582  0.39445389    -0.83850
C1310       C  0.65492478  0.65848713  0.39573432     0.96690
O1311       O  0.61858454  0.63934124  0.39851720    -0.83880
O1312       O  0.60730283  0.61276201  0.43840553    -0.86480
C1313       C  0.61692000  0.60055786  0.45401203     1.01160
O1314       O  0.62051022  0.57063011  0.45264944    -0.79300
O1315       O  0.68706975  0.58545948  0.43193027    -0.79450
C1316       C  0.71189274  0.59680739  0.41771786     1.01130
Cr1317     Cr  0.65385713  0.58902822  0.38636712     1.93740
Cr1318     Cr  0.58692299  0.58638246  0.41144272     1.93210
Cr1319     Cr  0.63141907  0.54601130  0.42789481     1.39100
O1320       O  0.62385864  0.57364045  0.40872880    -1.24540
O1321       O  0.87714493  0.59083839  0.39979170    -0.86790
O1322       O  0.95430756  0.64247851  0.39593837    -0.83840
C1323       C  0.99059191  0.65875940  0.39660953     0.96670
O1324       O  0.00788303  0.63946501  0.39863310    -0.83870
O1325       O  0.99258333  0.61134462  0.43815176    -0.86510
C1326       C  0.97056560  0.59869710  0.45365982     1.01200
O1327       O  0.93747023  0.56826021  0.45219054    -0.79280
O1328       O  0.88715108  0.58463359  0.43212053    -0.79460
C1329       C  0.87250129  0.59581234  0.41850018     1.01150
O1330       O  0.89071057  0.53781264  0.37683239    -0.86790
O1331       O  0.96317367  0.59355737  0.36714424    -0.83850
C1332       C  0.97995078  0.57382163  0.36696936     0.96690
O1333       O  0.98726062  0.56271787  0.38372423    -0.83880
O1334       O  0.97662928  0.53527609  0.42360396    -0.86480
C1335       C  0.94526347  0.50313001  0.42478837     1.01160
O1336       O  0.91295367  0.50172805  0.42453324    -0.79300
O1337       O  0.85922214  0.51550319  0.40601657    -0.79450
C1338       C  0.86185774  0.51292740  0.38658011     1.01130
Cr1339     Cr  0.92267707  0.58983531  0.38683730     1.93740
Cr1340     Cr  0.98706990  0.58602026  0.41094840     1.93210
Cr1341     Cr  0.90209685  0.54469172  0.42728444     1.39100
O1342       O  0.93739418  0.57320860  0.40849837    -1.24540
O1343       O  0.69948282  0.59354736  0.10678421    -0.86790
O1344       O  0.67359001  0.64448094  0.11220099    -0.83840
C1345       C  0.65393571  0.66107746  0.11095310     0.96670
O1346       O  0.61756905  0.64205512  0.10809918    -0.83870
O1347       O  0.60636920  0.61542291  0.06825036    -0.86510
C1348       C  0.61513878  0.60250143  0.05262758     1.01200
O1349       O  0.61697710  0.57162189  0.05397747    -0.79280
O1350       O  0.68350896  0.58756921  0.07430876    -0.79460
C1351       C  0.70917825  0.59865610  0.08804133     1.01150
O1352       O  0.63343255  0.53818829  0.12932848    -0.86790
O1353       O  0.61400524  0.59304259  0.13982143    -0.83850
C1354       C  0.57740319  0.57451063  0.13892078     0.96690
O1355       O  0.56076073  0.56452358  0.12167383    -0.83880
O1356       O  0.54513062  0.53870032  0.08195706    -0.86480
C1357       C  0.54398842  0.50630447  0.08128171     1.01160
O1358       O  0.57479935  0.50474768  0.08141662    -0.79300
O1359       O  0.64171697  0.51760542  0.09928974    -0.79450
C1360       C  0.63681975  0.51376623  0.11867268     1.01130
Cr1361     Cr  0.65235608  0.59100573  0.12008651     1.93740
Cr1362     Cr  0.58541039  0.58904193  0.09511684     1.93210
Cr1363     Cr  0.62857652  0.54765694  0.07872936     1.39100
O1364       O  0.62183215  0.57568145  0.09789460    -1.24540
O1365       O  0.29763769  0.89270457  0.89922800    -0.86790
O1366       O  0.32366382  0.96937058  0.89385417    -0.83840
C1367       C  0.34327709  0.00554595  0.89520375     0.96670
O1368       O  0.37963212  0.02288935  0.89807143    -0.83870
O1369       O  0.39051155  0.00756239  0.93803088    -0.86510
C1370       C  0.38160625  0.98589665  0.95366942     1.01200
O1371       O  0.37949707  0.95305030  0.95230462    -0.79280
O1372       O  0.31309986  0.90238914  0.93178531    -0.79460
C1373       C  0.28765933  0.88776739  0.91794495     1.01150
O1374       O  0.36400716  0.90345544  0.87689173    -0.86790
O1375       O  0.38358424  0.97755188  0.86637351    -0.83850
C1376       C  0.42019093  0.99531123  0.86733530     0.96690
O1377       O  0.43663429  0.00205620  0.88465105    -0.83880
O1378       O  0.45164493  0.99178701  0.92447254    -0.86480
C1379       C  0.45265818  0.96048243  0.92514451     1.01160
O1380       O  0.42183158  0.92821848  0.92499608    -0.79300
O1381       O  0.35516897  0.87448056  0.90692144    -0.79450
C1382       C  0.36030461  0.87559677  0.88755833     1.01130
Cr1383     Cr  0.34496105  0.93723404  0.88604045     1.93740
Cr1384     Cr  0.41164194  0.00201140  0.91117205     1.93210
Cr1385     Cr  0.36811584  0.91751299  0.92752704     1.39100
O1386       O  0.37516125  0.95232145  0.90834820    -1.24540
O1387       O  0.32564808  0.96666171  0.61149643    -0.86790
O1388       O  0.29991606  0.88974358  0.60644959    -0.83840
C1389       C  0.29020632  0.88499038  0.58772408     0.96670
O1390       O  0.31579776  0.90002246  0.57399025    -0.83870
O1391       O  0.38246949  0.95081692  0.55374245    -0.86510
C1392       C  0.38504190  0.98388633  0.55241111     1.01200
O1393       O  0.39385184  0.00544772  0.56809194    -0.79280
O1394       O  0.38191742  0.02017113  0.60803076    -0.79460
C1395       C  0.34552141  0.00290835  0.61069906     1.01150
O1396       O  0.38443296  0.97491473  0.63955883    -0.86790
O1397       O  0.36574135  0.90096005  0.62913645    -0.83850
C1398       C  0.36232856  0.87316642  0.61848994     0.96690
O1399       O  0.35756989  0.87205431  0.59908539    -0.83880
O1400       O  0.42433679  0.92556436  0.58108520    -0.86480
C1401       C  0.45515810  0.95780397  0.58108413     1.01160
O1402       O  0.45421893  0.98912683  0.58199231    -0.79300
O1403       O  0.43803246  0.99882171  0.62178781    -0.79450
C1404       C  0.42100268  0.99253809  0.63891967     1.01130
Cr1405     Cr  0.34670397  0.93453107  0.61971225     1.93740
Cr1406     Cr  0.37071713  0.91504258  0.57843633     1.93210
Cr1407     Cr  0.41407627  0.99934851  0.59507795     1.39100
O1408       O  0.37746424  0.94970631  0.59763184    -1.24540
O1409       O  0.57714379  0.71467227  0.89924866    -0.86790
O1410       O  0.62817706  0.68897432  0.89518626    -0.83840
C1411       C  0.64454405  0.66908702  0.89612004     0.96670
O1412       O  0.62546823  0.63267062  0.89872570    -0.83870
O1413       O  0.59797577  0.62063991  0.93846555    -0.86510
C1414       C  0.58584223  0.63063680  0.95397583     1.01200
O1415       O  0.55589153  0.63422551  0.95255635    -0.79280
O1416       O  0.57088311  0.70079326  0.93195822    -0.79460
C1417       C  0.58219156  0.72559154  0.91775296     1.01150
O1418       O  0.52288425  0.64732837  0.87737222    -0.86790
O1419       O  0.57837170  0.63023578  0.86714197    -0.83850
C1420       C  0.55912524  0.59373803  0.86725270     0.96690
O1421       O  0.54852619  0.57596173  0.88421472    -0.83880
O1422       O  0.52177310  0.56061532  0.92425078    -0.86480
C1423       C  0.48973509  0.56003542  0.92562235     1.01160
O1424       O  0.48847095  0.59104316  0.92556571    -0.79300
O1425       O  0.50163406  0.65802730  0.90654127    -0.79450
C1426       C  0.49861358  0.65226691  0.88717041     1.01130
Cr1427     Cr  0.57528171  0.66762719  0.88672345     1.93740
Cr1428     Cr  0.57225699  0.60044599  0.91134191     1.93210
Cr1429     Cr  0.53144692  0.64512254  0.92771162     1.39100
O1430       O  0.55950387  0.63745081  0.90880366    -1.24540
O1431       O  0.52591562  0.64703746  0.62992399    -0.86790
O1432       O  0.58115308  0.62950674  0.63958108    -0.83840
C1433       C  0.56168525  0.59296459  0.63946125     0.96670
O1434       O  0.55126032  0.57503732  0.62253061    -0.83870
O1435       O  0.52414956  0.55911844  0.58256995    -0.86510
C1436       C  0.49189249  0.55821546  0.58157571     1.01200
O1437       O  0.49034072  0.58904820  0.58203111    -0.79280
O1438       O  0.50381937  0.65645497  0.60074483    -0.79460
C1439       C  0.50117689  0.65129323  0.62019586     1.01150
O1440       O  0.57949161  0.71379840  0.60708342    -0.86790
O1441       O  0.63079885  0.68801101  0.61113265    -0.83850
C1442       C  0.64724153  0.66818088  0.61019222     0.96690
O1443       O  0.62810258  0.63167591  0.60793416    -0.83880
O1444       O  0.60033370  0.61974509  0.56831270    -0.86480
C1445       C  0.58759413  0.62913703  0.55283666     1.01160
O1446       O  0.55691714  0.63143008  0.55437118    -0.79300
O1447       O  0.57305811  0.69776078  0.57470128    -0.79450
C1448       C  0.58438771  0.72350960  0.58836963     1.01130
Cr1449     Cr  0.57802581  0.66691165  0.62000063     1.93740
Cr1450     Cr  0.57476862  0.59925753  0.59543925     1.93210
Cr1451     Cr  0.53318416  0.64290176  0.57940368     1.39100
O1452       O  0.56168282  0.63593996  0.59815846    -1.24540
O1453       O  0.10978061  0.48736141  0.63008218    -0.86790
O1454       O  0.03700468  0.43231019  0.63997387    -0.83840
C1455       C  0.01978625  0.45165236  0.63965411     0.96670
O1456       O  0.01255465  0.46192266  0.62262081    -0.83870
O1457       O  0.02410000  0.48847740  0.58262219    -0.86510
C1458       C  0.05546249  0.52058567  0.58143394     1.01200
O1459       O  0.08778478  0.52199824  0.58188564    -0.79280
O1460       O  0.14165076  0.50880710  0.60094639    -0.79460
C1461       C  0.13893637  0.51176646  0.62034774     1.01150
O1462       O  0.12257035  0.43285037  0.60789617    -0.86790
O1463       O  0.04603610  0.38205664  0.61206624    -0.83850
C1464       C  0.00984721  0.36569277  0.61090351     0.96690
O1465       O  0.99253229  0.38483790  0.60829940    -0.83880
O1466       O  0.00826916  0.41239628  0.56855820    -0.86480
C1467       C  0.03024111  0.42504972  0.55302516     1.01160
O1468       O  0.06374363  0.45500475  0.55459744    -0.79300
O1469       O  0.11514264  0.43973838  0.57521437    -0.79450
C1470       C  0.12840172  0.42801795  0.58933004     1.01130
Cr1471     Cr  0.07754617  0.43500389  0.62052970     1.93740
Cr1472     Cr  0.01351845  0.43805729  0.59564709     1.93210
Cr1473     Cr  0.09900084  0.47914803  0.57960782     1.39100
O1474       O  0.06324561  0.45088492  0.59839820    -1.24540
O1475       O  0.47300441  0.38044361  0.12979042    -0.86790
O1476       O  0.41762089  0.39761131  0.13960602    -0.83840
C1477       C  0.43687397  0.43416555  0.13946379     0.96670
O1478       O  0.44714189  0.45202798  0.12252184    -0.83870
O1479       O  0.47441529  0.46807522  0.08261628    -0.86510
C1480       C  0.50672692  0.46905623  0.08160977     1.01200
O1481       O  0.50830074  0.43822772  0.08199611    -0.79280
O1482       O  0.49504069  0.37088101  0.10063055    -0.79460
C1483       C  0.49777682  0.37624471  0.12006068     1.01150
O1484       O  0.41944790  0.31339266  0.10701680    -0.86790
O1485       O  0.36785136  0.33880773  0.11129532    -0.83850
C1486       C  0.35132535  0.35856339  0.11044638     0.96690
O1487       O  0.37036487  0.39503897  0.10794617    -0.83880
O1488       O  0.39824288  0.40715153  0.06825865    -0.86480
C1489       C  0.41105609  0.39782595  0.05277080     1.01160
O1490       O  0.44178956  0.39565398  0.05430851    -0.79300
O1491       O  0.42578345  0.32939714  0.07463496    -0.79450
C1492       C  0.41450377  0.30365949  0.08829621     1.01130
Cr1493     Cr  0.42079721  0.36023466  0.11998286     1.93740
Cr1494     Cr  0.42372203  0.42770330  0.09542339     1.93210
Cr1495     Cr  0.46555368  0.38430282  0.07934225     1.39100
O1496       O  0.43695396  0.39113830  0.09811724    -1.24540
O1497       O  0.36418316  0.49100362  0.87731848    -0.86790
O1498       O  0.38336756  0.43603266  0.86670467    -0.83840
C1499       C  0.41991262  0.45478048  0.86750021     0.96670
O1500       O  0.43657120  0.46522878  0.88475018    -0.83870
O1501       O  0.45180987  0.49072777  0.92465341    -0.86510
C1502       C  0.45252950  0.52283394  0.92583140     1.01200
O1503       O  0.42154637  0.52407786  0.92595030    -0.79280
O1504       O  0.35524265  0.51125575  0.90736609    -0.79460
C1505       C  0.36048241  0.51517334  0.88801726     1.01150
O1506       O  0.29788484  0.43543668  0.89923302    -0.86790
O1507       O  0.32408459  0.38507929  0.89435145    -0.83850
C1508       C  0.34387790  0.36866088  0.89558097     0.96690
O1509       O  0.38020458  0.38769016  0.89844005    -0.83880
O1510       O  0.39152798  0.41412357  0.93837599    -0.86480
C1511       C  0.38191181  0.42631595  0.95399999     1.01160
O1512       O  0.37846112  0.45631154  0.95269778    -0.79300
O1513       O  0.31186035  0.44152127  0.93200378    -0.79450
C1514       C  0.28706368  0.43034803  0.91777213     1.01130
Cr1515     Cr  0.34517286  0.43825400  0.88640952     1.93740
Cr1516     Cr  0.41198942  0.44057219  0.91144177     1.93210
Cr1517     Cr  0.36757132  0.48097872  0.92802416     1.39100
O1518       O  0.37512699  0.45343039  0.90878488    -1.24540
O1519       O  0.12130196  0.43636197  0.89987214    -0.86790
O1520       O  0.04411489  0.38460882  0.89594769    -0.83840
C1521       C  0.00782161  0.36828001  0.89666192     0.96670
O1522       O  0.99047698  0.38751066  0.89871736    -0.83870
O1523       O  0.00558236  0.41545106  0.93829039    -0.86510
C1524       C  0.02763722  0.42787460  0.95380618     1.01200
O1525       O  0.06075151  0.45831023  0.95238763    -0.79280
O1526       O  0.11131887  0.44241001  0.93222697    -0.79460
C1527       C  0.12604234  0.43138015  0.91856198     1.01150
O1528       O  0.10765305  0.48943239  0.87704625    -0.86790
O1529       O  0.03527445  0.43357313  0.86722316    -0.83850
C1530       C  0.01843272  0.45324143  0.86704115     0.96690
O1531       O  0.01097579  0.46421535  0.88381995    -0.83880
O1532       O  0.02143873  0.49154690  0.92376502    -0.86480
C1533       C  0.05279293  0.52367457  0.92503326     1.01160
O1534       O  0.08510395  0.52507277  0.92489529    -0.79300
O1535       O  0.13904537  0.51167853  0.90626712    -0.79450
C1536       C  0.13650319  0.51428227  0.88682249     1.01130
Cr1537     Cr  0.07572284  0.43732402  0.88695155     1.93740
Cr1538     Cr  0.01116097  0.44087929  0.91107581     1.93210
Cr1539     Cr  0.09613485  0.48221215  0.92750584     1.39100
O1540       O  0.06088645  0.45377046  0.90865897    -1.24540
O1541       O  0.42137804  0.31213258  0.39914024    -0.86790
O1542       O  0.37050795  0.33806857  0.39521642    -0.83840
C1543       C  0.35421881  0.35803038  0.39619329     0.96670
O1544       O  0.37342077  0.39446401  0.39872239    -0.83870
O1545       O  0.40109805  0.40646715  0.43841008    -0.86510
C1546       C  0.41326530  0.39649815  0.45390262     1.01200
O1547       O  0.44316984  0.39281347  0.45244044    -0.79280
O1548       O  0.42806940  0.32621193  0.43183588    -0.79460
C1549       C  0.41651753  0.30133274  0.41765818     1.01150
O1550       O  0.47561887  0.37925465  0.37711790    -0.86790
O1551       O  0.42031329  0.39667108  0.36707824    -0.83850
C1552       C  0.43969755  0.43317086  0.36720139     0.96690
O1553       O  0.45041823  0.45095360  0.38416245    -0.83880
O1554       O  0.47726629  0.46632600  0.42417070    -0.86480
C1555       C  0.50929506  0.46688462  0.42547953     1.01160
O1556       O  0.51053608  0.43586908  0.42535169    -0.79300
O1557       O  0.49718373  0.36886035  0.40625440    -0.79450
C1558       C  0.50004266  0.37450262  0.38686841     1.01130
Cr1559     Cr  0.42333069  0.35920754  0.38662320     1.93740
Cr1560     Cr  0.42672665  0.42656605  0.41128272     1.93210
Cr1561     Cr  0.46751023  0.38182787  0.42753053     1.39100
O1562       O  0.43936335  0.38948093  0.40868644    -1.24540
O1563       O  0.29931551  0.43329534  0.60675102    -0.86790
O1564       O  0.32566226  0.38267182  0.61167517    -0.83840
C1565       C  0.34545465  0.36622931  0.61039092     0.96670
O1566       O  0.38187588  0.38537856  0.60787570    -0.83870
O1567       O  0.39299562  0.41201648  0.56812151    -0.86510
C1568       C  0.38399070  0.42479434  0.55254104     1.01200
O1569       O  0.38182185  0.45549167  0.55391649    -0.79280
O1570       O  0.31520183  0.43930673  0.57427794    -0.79460
C1571       C  0.28954461  0.42821408  0.58802154     1.01150
O1572       O  0.36534504  0.48841266  0.62937140    -0.86790
O1573       O  0.38483891  0.43363588  0.63960290    -0.83850
C1574       C  0.42142891  0.45267606  0.63879890     0.96690
O1575       O  0.43817660  0.46297884  0.62159121    -0.83880
O1576       O  0.45377541  0.48871300  0.58186264    -0.86480
C1577       C  0.45472626  0.52099485  0.58120408     1.01160
O1578       O  0.42384788  0.52241113  0.58134349    -0.79300
O1579       O  0.35704439  0.50917016  0.59938480    -0.79450
C1580       C  0.36210615  0.51293373  0.61876077     1.01130
Cr1581     Cr  0.34653679  0.43580882  0.61992181     1.93740
Cr1582     Cr  0.41376697  0.43838944  0.59499524     1.93210
Cr1583     Cr  0.37015388  0.47934681  0.57868689     1.39100
O1584       O  0.37712115  0.45143552  0.59777735    -1.24540
O1585       O  0.95467064  0.33755185  0.39341450    -0.86790
O1586       O  0.87836547  0.31116365  0.39870154    -0.83840
C1587       C  0.87260204  0.30060575  0.41730692     0.96670
O1588       O  0.88582503  0.32556512  0.43146302    -0.83870
O1589       O  0.93759375  0.39220136  0.45213444    -0.86510
C1590       C  0.97093116  0.39533192  0.45356675     1.01200
O1591       O  0.99258925  0.40431746  0.43791479    -0.79280
O1592       O  0.00805251  0.39345930  0.39793149    -0.79460
C1593       C  0.99079337  0.35714460  0.39499083     1.01150
O1594       O  0.96258382  0.39752333  0.36612199    -0.86790
O1595       O  0.88817046  0.37732861  0.37659185    -0.83850
C1596       C  0.86026934  0.37372230  0.38722241     0.96690
O1597       O  0.85913467  0.36868965  0.40660723    -0.83880
O1598       O  0.91298530  0.43507156  0.42498446    -0.86480
C1599       C  0.94524831  0.46592494  0.42511759     1.01160
O1600       O  0.97654612  0.46496703  0.42439624    -0.79300
O1601       O  0.98692537  0.45032665  0.38456255    -0.79450
C1602       C  0.98030481  0.43408806  0.36719536     1.01130
Cr1603     Cr  0.92237746  0.35866810  0.38570683     1.93740
Cr1604     Cr  0.90197837  0.38114368  0.42732274     1.93210
Cr1605     Cr  0.98683976  0.42517592  0.41104039     1.39100
O1606       O  0.93710896  0.38847785  0.40817065    -1.24540
O1607       O  0.87619601  0.31514845  0.10706804    -0.86790
O1608       O  0.95287840  0.34047721  0.11103222    -0.83840
C1609       C  0.98911761  0.36040419  0.11015155     0.96670
O1610       O  0.00629111  0.39681286  0.10753278    -0.83870
O1611       O  0.99087835  0.40846779  0.06774527    -0.86510
C1612       C  0.96885229  0.39875715  0.05222736     1.01200
O1613       O  0.93539509  0.39548283  0.05366002    -0.79280
O1614       O  0.88358045  0.32902335  0.07431938    -0.79460
C1615       C  0.87022227  0.30426418  0.08855355     1.01150
O1616       O  0.88932185  0.38248841  0.12897789    -0.86790
O1617       O  0.96238870  0.39948890  0.13908403    -0.83850
C1618       C  0.97882481  0.43592095  0.13857897     0.96690
O1619       O  0.98464535  0.45290974  0.12146027    -0.83880
O1620       O  0.97479556  0.46872672  0.08162857    -0.86480
C1621       C  0.94351381  0.46969029  0.08084360     1.01160
O1622       O  0.91120046  0.43881052  0.08098064    -0.79300
O1623       O  0.85729736  0.37186879  0.09983786    -0.79450
C1624       C  0.86002840  0.37753447  0.11922760     1.01130
Cr1625     Cr  0.92143896  0.36202011  0.11956916     1.93740
Cr1626     Cr  0.98512345  0.42879316  0.09469737     1.93210
Cr1627     Cr  0.89993120  0.38466035  0.07857665     1.39100
O1628       O  0.93558702  0.39193823  0.09735759    -1.24540
O1629       O  0.67278244  0.06014292  0.11087142    -0.86790
O1630       O  0.69832196  0.13721409  0.10675898    -0.83840
C1631       C  0.70838665  0.14234129  0.08809286     0.96670
O1632       O  0.68300800  0.12771143  0.07424291    -0.83870
O1633       O  0.61667690  0.07703099  0.05376880    -0.86510
C1634       C  0.61407560  0.04388044  0.05233099     1.01200
O1635       O  0.60486144  0.02200642  0.06788382    -0.79280
O1636       O  0.61632422  0.00672018  0.10771610    -0.79460
C1637       C  0.65276110  0.02388345  0.11018477     1.01150
O1638       O  0.61399540  0.05083845  0.13911068    -0.86790
O1639       O  0.63116754  0.12387177  0.12911102    -0.83850
C1640       C  0.63613580  0.15311192  0.11933749     0.96690
O1641       O  0.64154456  0.15559374  0.09991427    -0.83880
O1642       O  0.57426189  0.10175203  0.08127103    -0.86480
C1643       C  0.54350801  0.06939320  0.08085001     1.01160
O1644       O  0.54455934  0.03814507  0.08158570    -0.79300
O1645       O  0.56040002  0.02842177  0.12152451    -0.79450
C1646       C  0.57751628  0.03434446  0.13862252     1.01130
Cr1647     Cr  0.65147399  0.09173519  0.11953829     1.93740
Cr1648     Cr  0.62808889  0.11261543  0.07868462     1.93210
Cr1649     Cr  0.58438369  0.02777290  0.09479208     1.39100
O1650       O  0.62108381  0.07727786  0.09747690    -1.24540
O1651       O  0.62871445  0.96861426  0.89535046    -0.86790
O1652       O  0.57689050  0.89149806  0.89963279    -0.83840
C1653       C  0.58167349  0.88670321  0.91834639     0.96670
O1654       O  0.57054299  0.90137833  0.93199081    -0.83870
O1655       O  0.55468499  0.95207893  0.95212616    -0.86510
C1656       C  0.58526282  0.98507942  0.95363115     1.01200
O1657       O  0.59809967  0.00701840  0.93809119    -0.79280
O1658       O  0.62596348  0.02227297  0.89837666    -0.79460
C1659       C  0.64512468  0.00491668  0.89598413     1.01150
O1660       O  0.57912791  0.97718415  0.86691478    -0.86790
O1661       O  0.52349408  0.90468198  0.87677046    -0.83850
C1662       C  0.49870233  0.87581873  0.88655739     0.96690
O1663       O  0.50130825  0.87352745  0.90602108    -0.83880
O1664       O  0.48817434  0.92791985  0.92447052    -0.86480
C1665       C  0.48979860  0.96033532  0.92479731     1.01160
O1666       O  0.52206819  0.99157633  0.92368013    -0.79300
O1667       O  0.54921306  0.00206180  0.88372807    -0.79450
C1668       C  0.55979091  0.99438340  0.86689263     1.01130
Cr1669     Cr  0.57573344  0.93687599  0.88661379     1.93740
Cr1670     Cr  0.53086216  0.91665542  0.92720297     1.93210
Cr1671     Cr  0.57263956  0.00165162  0.91088820     1.39100
O1672       O  0.55948147  0.95184784  0.90837278    -1.24540
O1673       O  0.70139000  0.13452251  0.39938706    -0.86790
O1674       O  0.67500712  0.05778062  0.39386305    -0.83840
C1675       C  0.65534504  0.02161385  0.39520648     0.96670
O1676       O  0.61897013  0.00431279  0.39798628    -0.83870
O1677       O  0.60798276  0.01963828  0.43796600    -0.86510
C1678       C  0.61665848  0.04123967  0.45363458     1.01200
O1679       O  0.61881419  0.07410550  0.45224156    -0.79280
O1680       O  0.68549656  0.12453596  0.43188038    -0.79460
C1681       C  0.71114167  0.13929300  0.41814912     1.01150
O1682       O  0.63514993  0.12401317  0.37688520    -0.86790
O1683       O  0.61523200  0.04992325  0.36627622    -0.83850
C1684       C  0.57859916  0.03223097  0.36722122     0.96690
O1685       O  0.56215279  0.02540218  0.38453729    -0.83880
O1686       O  0.54711685  0.03569552  0.42434244    -0.86480
C1687       C  0.54615108  0.06702879  0.42493021     1.01160
O1688       O  0.57700065  0.09927031  0.42478461    -0.79300
O1689       O  0.64389512  0.15294098  0.40692844    -0.79450
C1690       C  0.63875986  0.15182793  0.38756416     1.01130
Cr1691     Cr  0.65396609  0.09009397  0.38604365     1.93740
Cr1692     Cr  0.58703530  0.02531965  0.41106866     1.93210
Cr1693     Cr  0.63060997  0.10975910  0.42748543     1.39100
O1694       O  0.62361277  0.07498580  0.40829290    -1.24540
O1695       O  0.41894140  0.13661953  0.10735598    -0.86790
O1696       O  0.36846254  0.06009265  0.11213181    -0.83840
C1697       C  0.35195024  0.02390181  0.11077606     0.96670
O1698       O  0.37086342  0.00644391  0.10798933    -0.83870
O1699       O  0.39798143  0.02162082  0.06820758    -0.86510
C1700       C  0.41018243  0.04346443  0.05261507     1.01200
O1701       O  0.43998985  0.07692275  0.05397720    -0.79280
O1702       O  0.42493224  0.12850560  0.07463412    -0.79460
C1703       C  0.41374966  0.14218174  0.08883404     1.01150
O1704       O  0.47432750  0.12578270  0.12934078    -0.86790
O1705       O  0.41962634  0.05227802  0.13975982    -0.83850
C1706       C  0.43778456  0.03386265  0.13936122     0.96690
O1707       O  0.44756199  0.02608559  0.12231564    -0.83880
O1708       O  0.47427975  0.03764741  0.08237685    -0.86480
C1709       C  0.50621832  0.06909841  0.08089542     1.01160
O1710       O  0.50736173  0.10126230  0.08069849    -0.79300
O1711       O  0.49480228  0.15486377  0.09933301    -0.79450
C1712       C  0.49865646  0.15351927  0.11868402     1.01130
Cr1713     Cr  0.42166822  0.09219206  0.12013451     1.93740
Cr1714     Cr  0.42388743  0.02723904  0.09531409     1.93210
Cr1715     Cr  0.46442889  0.11225408  0.07867513     1.39100
O1716       O  0.43693427  0.07714378  0.09792216    -1.24540
O1717       O  0.04380367  0.68934621  0.89337801    -0.86790
O1718       O  0.12007732  0.71541789  0.89866791    -0.83840
C1719       C  0.12573666  0.72603517  0.91726418     0.96670
O1720       O  0.11234605  0.70114826  0.93143365    -0.83870
O1721       O  0.06073560  0.63476229  0.95218598    -0.86510
C1722       C  0.02756613  0.63200006  0.95359001     1.01200
O1723       O  0.00587805  0.62296110  0.93794592    -0.79280
O1724       O  0.99034181  0.63353565  0.89794173    -0.79460
C1725       C  0.00766840  0.66982590  0.89491864     1.01150
O1726       O  0.03562766  0.62912831  0.86619005    -0.86790
O1727       O  0.11005182  0.64913341  0.87664732    -0.83850
C1728       C  0.13802314  0.65297147  0.88729791     0.96690
O1729       O  0.13908468  0.65801449  0.90667888    -0.83880
O1730       O  0.08515229  0.59169309  0.92508734    -0.86480
C1731       C  0.05284787  0.56089606  0.92528108     1.01160
O1732       O  0.02158358  0.56193257  0.92453131    -0.79300
O1733       O  0.01107995  0.57635853  0.88464945    -0.79450
C1734       C  0.01773085  0.59256681  0.86727779     1.01130
Cr1735     Cr  0.07594777  0.66798230  0.88571722     1.93740
Cr1736     Cr  0.09624159  0.64562694  0.92736646     1.93210
Cr1737     Cr  0.01139077  0.60174921  0.91111233     1.39100
O1738       O  0.06114766  0.63827458  0.90819983    -1.24540
O1739       O  0.12300690  0.71265333  0.60676257    -0.86790
O1740       O  0.04642547  0.68699471  0.61169533    -0.83840
C1741       C  0.01018860  0.66717489  0.61065427     0.96670
O1742       O  0.99295942  0.63083465  0.60782581    -0.83870
O1743       O  0.00773105  0.61882564  0.56792548    -0.86510
C1744       C  0.02940460  0.62816747  0.55227340     1.01200
O1745       O  0.06284060  0.63152584  0.55358497    -0.79280
O1746       O  0.11495814  0.69823221  0.57404264    -0.79460
C1747       C  0.12861028  0.72318846  0.58819405     1.01150
O1748       O  0.11234294  0.64672976  0.62896769    -0.86790
O1749       O  0.03824834  0.62815725  0.63950351    -0.83850
C1750       C  0.02050793  0.59164862  0.63881009     0.96690
O1751       O  0.01433409  0.57471702  0.62165300    -0.83880
O1752       O  0.02404149  0.55859291  0.58190935    -0.86480
C1753       C  0.05537390  0.55773837  0.58090664     1.01160
O1754       O  0.08757714  0.58863914  0.58065124    -0.79300
O1755       O  0.14136191  0.65496693  0.59893652    -0.79450
C1756       C  0.14018547  0.65012854  0.61832895     1.01130
Cr1757     Cr  0.07858065  0.66582194  0.61972851     1.93740
Cr1758     Cr  0.01393326  0.59877636  0.59492637     1.93210
Cr1759     Cr  0.09859485  0.64258249  0.57826561     1.39100
O1760       O  0.06364648  0.63554645  0.59747112    -1.24540
O1761       O  0.57992534  0.89062575  0.60776311    -0.86790
O1762       O  0.63063585  0.96726263  0.61202981    -0.83840
C1763       C  0.64696986  0.00347387  0.61091319     0.96670
O1764       O  0.62782854  0.02075618  0.60827320    -0.83870
O1765       O  0.60042102  0.00509215  0.56848188    -0.86510
C1766       C  0.58784055  0.98310851  0.55294108     1.01200
O1767       O  0.55795849  0.94957450  0.55447615    -0.79280
O1768       O  0.57322191  0.89803172  0.57505368    -0.79460
C1769       C  0.58481709  0.88474066  0.58923005     1.01150
O1770       O  0.52518424  0.90311069  0.62972256    -0.86790
O1771       O  0.58023896  0.97584845  0.63986819    -0.83850
C1772       C  0.56093638  0.99307875  0.63957859     0.96690
O1773       O  0.55071537  0.00043738  0.62255990    -0.83880
O1774       O  0.52435382  0.98911732  0.58253632    -0.86480
C1775       C  0.49229189  0.95774719  0.58138581     1.01160
O1776       O  0.49092507  0.92543934  0.58167935    -0.79300
O1777       O  0.50395907  0.87136810  0.60052854    -0.79450
C1778       C  0.50085570  0.87398139  0.61990771     1.01130
Cr1779     Cr  0.57764757  0.93552513  0.62036552     1.93740
Cr1780     Cr  0.57467719  0.99966569  0.59557340     1.93210
Cr1781     Cr  0.53376490  0.91420928  0.57937556     1.39100
O1782       O  0.56190904  0.94991618  0.59823405    -1.24540
O1783       O  0.05500014  0.77465727  0.99772842    -0.86790
O1784       O  0.98940785  0.73650100  0.97413514    -0.83840
C1785       C  0.95948824  0.70937853  0.96617771     0.96670
O1786       O  0.93997714  0.67655207  0.97469722    -0.83870
O1787       O  0.98165922  0.63982221  0.97354621    -0.86510
C1788       C  0.01432848  0.64184472  0.97325786     1.01200
O1789       O  0.03606647  0.65405790  0.98900713    -0.79280
O1790       O  0.07326156  0.73327426  0.98890897    -0.79460
C1791       C  0.07913638  0.76747997  0.98902180     1.01150
O1792       O  0.00619907  0.74474812  0.03262683    -0.86790
O1793       O  0.94055869  0.71716396  0.00897655    -0.83850
C1794       C  0.91672349  0.68584000  0.01770106     0.96690
O1795       O  0.92294925  0.65771385  0.01773505    -0.83880
O1796       O  0.96069277  0.61619026  0.01743340    -0.86480
C1797       C  0.98241179  0.62586276  0.03318820     1.01160
O1798       O  0.01496659  0.65653146  0.03292147    -0.79300
O1799       O  0.05605726  0.73481920  0.03190019    -0.79450
C1800       C  0.03639154  0.74795449  0.04047959     1.01130
Cr1801     Cr  0.99781016  0.73922548  0.00336749     1.93740
Cr1802     Cr  0.95505183  0.65083517  0.99643263     1.93210
Cr1803     Cr  0.04130494  0.69415617  0.01010200     1.39100
O1804       O  0.99806379  0.69449643  0.00328599    -1.24540
O1805       O  0.07574598  0.72971099  0.51724389    -0.86790
O1806       O  0.03775814  0.65046710  0.51703726    -0.83840
C1807       C  0.01595294  0.63796481  0.53271745     0.96670
O1808       O  0.98322983  0.63585959  0.53251294    -0.83870
O1809       O  0.94212114  0.67334910  0.53214437    -0.86510
C1810       C  0.96181992  0.70609050  0.54070729     1.01200
O1811       O  0.99206803  0.73298828  0.53286239    -0.79280
O1812       O  0.05764977  0.77141512  0.50909113    -0.79460
C1813       C  0.08188889  0.76402546  0.51738940     1.01150
O1814       O  0.05764427  0.73129961  0.47432877    -0.86790
O1815       O  0.01604605  0.65259635  0.47346594    -0.83850
C1816       C  0.98335336  0.62202321  0.47318936     0.96690
O1817       O  0.96110921  0.61290948  0.48870209    -0.83880
O1818       O  0.92320430  0.65505161  0.48940396    -0.86480
C1819       C  0.91889154  0.68442727  0.48931692     1.01160
O1820       O  0.94378088  0.71535039  0.49793983    -0.79300
O1821       O  0.00878885  0.74276514  0.47436820    -0.79450
C1822       C  0.03858331  0.74558209  0.46623030     1.01130
Cr1823     Cr  0.04291287  0.69054963  0.49611114     1.93740
Cr1824     Cr  0.95635703  0.64762922  0.51005579     1.93210
Cr1825     Cr  0.00048737  0.73637244  0.50357310     1.39100
O1826       O  0.99983094  0.69120025  0.50315261    -1.24540
O1827       O  0.94209395  0.29328182  0.53194247    -0.86790
O1828       O  0.98406457  0.37169660  0.53301237    -0.83840
C1829       C  0.01678131  0.40225535  0.53329332     0.96670
O1830       O  0.03834355  0.41184022  0.51749116    -0.83870
O1831       O  0.07561090  0.36984192  0.51782540    -0.86510
C1832       C  0.08166587  0.34159513  0.51778592     1.01200
O1833       O  0.05751781  0.31018202  0.50919846    -0.79280
O1834       O  0.99159634  0.28281399  0.53268026    -0.79460
C1835       C  0.96141680  0.27975143  0.54048096     1.01150
O1836       O  0.92504397  0.29484608  0.48894692    -0.86790
O1837       O  0.96281004  0.37413233  0.48910187    -0.83850
C1838       C  0.98438387  0.38592958  0.47329213     0.96690
O1839       O  0.01703227  0.38788618  0.47359592    -0.83880
O1840       O  0.05852660  0.35097355  0.47487622    -0.86480
C1841       C  0.03894831  0.31817571  0.46635336     1.01160
O1842       O  0.00886648  0.29116450  0.47423569    -0.79300
O1843       O  0.94295544  0.25316837  0.49767739    -0.79450
C1844       C  0.91888918  0.26051308  0.48902057     1.01130
Cr1845     Cr  0.95729177  0.33399835  0.51017785     1.93740
Cr1846     Cr  0.04357857  0.37685988  0.49653006     1.93210
Cr1847     Cr  0.00025359  0.28840246  0.50344809     1.39100
O1848       O  0.00037203  0.33331682  0.50338139    -1.24540
O1849       O  0.23837506  0.31185803  0.99727703    -0.86790
O1850       O  0.27645196  0.28414713  0.97353200    -0.83840
C1851       C  0.30337420  0.28075434  0.96569351     0.96670
O1852       O  0.33617521  0.29390321  0.97425882    -0.83870
O1853       O  0.37384091  0.37238712  0.97373770    -0.86510
C1854       C  0.37192303  0.40308078  0.97352632     1.01200
O1855       O  0.35950111  0.41252706  0.98920023    -0.79280
O1856       O  0.28033824  0.37133979  0.98881814    -0.79460
C1857       C  0.24598652  0.34332517  0.98873203     1.01150
O1858       O  0.26721507  0.29187788  0.03204187    -0.86790
O1859       O  0.29445765  0.25410567  0.00849466    -0.83850
C1860       C  0.32539536  0.26036031  0.01718617     0.96690
O1861       O  0.35467829  0.29397812  0.01707223    -0.83880
O1862       O  0.39682618  0.37372081  0.01768154    -0.86480
C1863       C  0.38766961  0.38692757  0.03318765     1.01160
O1864       O  0.35702187  0.38895938  0.03285002    -0.79300
O1865       O  0.27844739  0.35208520  0.03185495    -0.79450
C1866       C  0.26458486  0.31898835  0.04014936     1.01130
Cr1867     Cr  0.27332263  0.28962432  0.00282582     1.93740
Cr1868     Cr  0.36207289  0.33408554  0.99630020     1.93210
Cr1869     Cr  0.31925044  0.37782765  0.01009202     1.39100
O1870       O  0.31852496  0.33406739  0.00314658    -1.24540
O1871       O  0.35767183  0.29481670  0.48842625    -0.86790
O1872       O  0.39927834  0.37392835  0.48911754    -0.83840
C1873       C  0.38992538  0.38638902  0.47343825     0.96670
O1874       O  0.35916087  0.38823346  0.47363173    -0.83870
O1875       O  0.28057001  0.35109447  0.47434523    -0.86510
C1876       C  0.26729469  0.31836454  0.46573908     1.01200
O1877       O  0.27086917  0.29141219  0.47334546    -0.79280
O1878       O  0.29819060  0.25288868  0.49694271    -0.79460
C1879       C  0.32968622  0.26047337  0.48843307     1.01150
O1880       O  0.33823650  0.29232608  0.53139007    -0.86790
O1881       O  0.37525388  0.37082627  0.53271593    -0.83850
C1882       C  0.37341548  0.40155792  0.53302206     0.96690
O1883       O  0.36063622  0.41102006  0.51748748    -0.83880
O1884       O  0.28062305  0.36931494  0.51704918    -0.86480
C1885       C  0.24689132  0.34009943  0.51705288     1.01160
O1886       O  0.24066106  0.30917998  0.50832953    -0.79300
O1887       O  0.27816466  0.28151772  0.53171595    -0.79450
C1888       C  0.30513306  0.27849886  0.53968121     1.01130
Cr1889     Cr  0.36424691  0.33342969  0.50983780     1.93740
Cr1890     Cr  0.32083661  0.37663011  0.49623228     1.93210
Cr1891     Cr  0.27607620  0.28790665  0.50257077     1.39100
O1892       O  0.32059744  0.33297041  0.50297295    -1.24540
O1893       O  0.63901675  0.61428043  0.48929677    -0.86790
O1894       O  0.71815189  0.65550746  0.48877842    -0.83840
C1895       C  0.75251000  0.68350079  0.48868079     0.96670
O1896       O  0.76012510  0.71507451  0.49711179    -0.83870
O1897       O  0.72161271  0.74234251  0.47347379    -0.86510
C1898       C  0.69472245  0.74597481  0.46582510     1.01200
O1899       O  0.66203886  0.73291655  0.47447347    -0.79280
O1900       O  0.62473597  0.65441026  0.47380722    -0.79460
C1901       C  0.62671616  0.62373678  0.47358483     1.01150
O1902       O  0.64175559  0.63812789  0.53295458    -0.86790
O1903       O  0.72041980  0.67515293  0.53173470    -0.83850
C1904       C  0.73452578  0.70838445  0.53992274     0.96690
O1905       O  0.73171659  0.73539780  0.53186614    -0.83880
O1906       O  0.70396033  0.77277655  0.50846989    -0.86480
C1907       C  0.67308177  0.76654390  0.51724870     1.01160
O1908       O  0.64383833  0.73285966  0.51723790    -0.79300
O1909       O  0.60172301  0.65296463  0.51773897    -0.79450
C1910       C  0.61100037  0.63997826  0.53327106     1.01130
Cr1911     Cr  0.67939203  0.64913982  0.51011750     1.93740
Cr1912     Cr  0.72516434  0.73728397  0.50272038     1.93210
Cr1913     Cr  0.63637757  0.69268734  0.49642239     1.39100
O1914       O  0.68000495  0.69282188  0.50318915    -1.24540
O1915       O  0.33983854  0.07078576  0.53231966    -0.86790
O1916       O  0.37759399  0.02990533  0.53241882    -0.83840
C1917       C  0.37496811  0.99695635  0.53281795     0.96670
O1918       O  0.36165619  0.97458067  0.51736830    -0.83870
O1919       O  0.28185863  0.93611316  0.51681120    -0.86510
C1920       C  0.24804869  0.93143040  0.51708244     1.01200
O1921       O  0.24176181  0.95643819  0.50887009    -0.79280
O1922       O  0.28006642  0.02105347  0.53275961    -0.79460
C1923       C  0.30695164  0.05105273  0.54076493     1.01150
O1924       O  0.35818806  0.08999127  0.48943125    -0.86790
O1925       O  0.40011242  0.05209091  0.48858174    -0.83850
C1926       C  0.39092168  0.02961816  0.47316437     0.96690
O1927       O  0.36057138  0.99675633  0.47365716    -0.83880
O1928       O  0.28200748  0.95596557  0.47419615    -0.86480
C1929       C  0.26817281  0.97543359  0.46613079     1.01160
O1930       O  0.27112216  0.00524504  0.47431017    -0.79300
O1931       O  0.29816155  0.06987857  0.49813394    -0.79450
C1932       C  0.32894561  0.09450313  0.48936367     1.01130
Cr1933     Cr  0.36556205  0.05672668  0.51007055     1.93740
Cr1934     Cr  0.32213207  0.96984828  0.49614556     1.93210
Cr1935     Cr  0.27705778  0.01317017  0.50350981     1.39100
O1936       O  0.32189419  0.01323441  0.50323089    -1.24540
O1937       O  0.75769876  0.07085265  0.00903901    -0.86790
O1938       O  0.71968992  0.00603838  0.03276517    -0.83840
C1939       C  0.69272296  0.97616744  0.04081387     0.96670
O1940       O  0.65967660  0.95675028  0.03246609    -0.83870
O1941       O  0.62203868  0.99794421  0.03250432    -0.86510
C1942       C  0.62446090  0.03082731  0.03280002     1.01200
O1943       O  0.63778160  0.05305982  0.01732009    -0.79280
O1944       O  0.71749840  0.09112314  0.01692418    -0.79460
C1945       C  0.75126599  0.09572237  0.01733162     1.01150
O1946       O  0.72834556  0.02219164  0.97431049    -0.86790
O1947       O  0.70127983  0.95749778  0.99799198    -0.83850
C1948       C  0.67034113  0.93283856  0.98935456     0.96690
O1949       O  0.64108723  0.93732886  0.98960190    -0.83880
O1950       O  0.59935096  0.97542940  0.98870567    -0.86480
C1951       C  0.60846863  0.99781840  0.97325956     1.01160
O1952       O  0.63892272  0.03061719  0.97367961    -0.79300
O1953       O  0.71753427  0.07148789  0.97425639    -0.79450
C1954       C  0.73121736  0.05194102  0.96612131     1.01130
Cr1955     Cr  0.72246114  0.01415888  0.00351655     1.93740
Cr1956     Cr  0.63393083  0.97082121  0.01020964     1.93210
Cr1957     Cr  0.67736648  0.05756183  0.99618566     1.39100
O1958       O  0.67761971  0.01418384  0.00330861    -1.24540
O1959       O  0.27632465  0.02383893  0.97438845    -0.86790
O1960       O  0.23849458  0.95874840  0.99782641    -0.83840
C1961       C  0.24486261  0.93405304  0.98919993     0.96670
O1962       O  0.27862415  0.93866246  0.98922016    -0.83870
O1963       O  0.35841457  0.97656034  0.98885104    -0.86510
C1964       C  0.37115137  0.99868969  0.97326311     1.01200
O1965       O  0.37313084  0.03132303  0.97359958    -0.79280
O1966       O  0.33638247  0.07300496  0.97477684    -0.79460
C1967       C  0.30345028  0.05358095  0.96634234     1.01150
O1968       O  0.29599763  0.07253492  0.00921692    -0.86790
O1969       O  0.26833002  0.00666646  0.03284787    -0.83850
C1970       C  0.26482155  0.97622631  0.04055790     0.96690
O1971       O  0.27809035  0.95669329  0.03197541    -0.83880
O1972       O  0.35646213  0.99772070  0.03278475    -0.86480
C1973       C  0.38714930  0.03025301  0.03303517     1.01160
O1974       O  0.39674541  0.05204182  0.01733762    -0.79300
O1975       O  0.35542790  0.08996169  0.01784887    -0.79450
C1976       C  0.32739291  0.09631742  0.01785667     1.01130
Cr1977     Cr  0.27386901  0.01540586  0.00358385     1.93740
Cr1978     Cr  0.31850307  0.97129648  0.01009886     1.93210
Cr1979     Cr  0.36207951  0.05780057  0.99647730     1.39100
O1980       O  0.31836342  0.01475119  0.00331920    -1.24540
O1981       O  0.64129313  0.73259858  0.98861351    -0.86790
O1982       O  0.59988848  0.65348289  0.98914140    -0.83840
C1983       C  0.60923567  0.64091466  0.97349088     0.96670
O1984       O  0.64001460  0.63911350  0.97369152    -0.83870
O1985       O  0.71858588  0.67660031  0.97429534    -0.86510
C1986       C  0.73183268  0.70935694  0.96571719     1.01200
O1987       O  0.72842573  0.73634661  0.97345890    -0.79280
O1988       O  0.70075660  0.77459345  0.99712859    -0.79460
C1989       C  0.66929103  0.76693995  0.98855910     1.01150
O1990       O  0.66055958  0.73481849  0.03166967    -0.86790
O1991       O  0.62374834  0.65638641  0.03277218    -0.83850
C1992       C  0.62576423  0.62575244  0.03309246     0.96690
O1993       O  0.63873229  0.61641706  0.01757079    -0.83880
O1994       O  0.71861862  0.65836758  0.01705545    -0.86480
C1995       C  0.75228229  0.68764476  0.01715075     1.01160
O1996       O  0.75850431  0.71856403  0.00846471    -0.79300
O1997       O  0.72070420  0.74586046  0.03193784    -0.79450
C1998       C  0.69359878  0.74852545  0.04002339     1.01130
Cr1999     Cr  0.63476575  0.69389447  0.00995988     1.93740
Cr2000     Cr  0.67840561  0.65093094  0.99626179     1.93210
Cr2001     Cr  0.72297421  0.73966776  0.00273315     1.39100
O2002       O  0.67850023  0.69452064  0.00305583    -1.24540
O2003       O  0.07658360  0.00243275  0.83201947    -0.86790
O2004       O  0.11983335  0.05293944  0.80221901    -0.83840
C2005       C  0.09607439  0.06387685  0.79785947     0.96670
O2006       O  0.09259615  0.08791898  0.80871590    -0.83870
O2007       O  0.08751001  0.12263342  0.84356732    -0.86510
C2008       C  0.05762556  0.09599616  0.85232545     1.01200
O2009       O  0.05806416  0.06773930  0.86057355    -0.79280
O2010       O  0.07340658  0.00936979  0.86538253    -0.79460
C2011       C  0.05936366  0.99038993  0.84892870     1.01150
O2012       O  0.14452443  0.02301848  0.85520677    -0.86790
O2013       O  0.18629567  0.07997906  0.82767357    -0.83850
C2014       C  0.19836178  0.11066620  0.81743321     0.96690
O2015       O  0.17585384  0.12353146  0.81289688    -0.83880
O2016       O  0.16882145  0.15082351  0.84946120    -0.86480
C2017       C  0.16222750  0.15099389  0.86827098     1.01160
O2018       O  0.13259968  0.12348757  0.87667066    -0.79300
O2019       O  0.15092377  0.06625169  0.87806231    -0.79450
C2020       C  0.16003802  0.04247297  0.87114541     1.01130
Cr2021     Cr  0.13118990  0.04197293  0.83017045     1.93740
Cr2022     Cr  0.13052388  0.11827498  0.82957292     1.93210
Cr2023     Cr  0.10499694  0.06736279  0.86841381     1.39100
O2024       O  0.12219189  0.07595808  0.84277367    -1.24540
O2025       O  0.00372855  0.94059083  0.86552169    -0.86790
O2026       O  0.94413485  0.95494842  0.86079331    -0.83840
C2027       C  0.91538411  0.95375649  0.85213037     0.96670
O2028       O  0.88862030  0.92258221  0.84457129    -0.83870
O2029       O  0.92331002  0.91945179  0.81030803    -0.86510
C2030       C  0.94745850  0.91739972  0.79892252     1.01200
O2031       O  0.95922727  0.89391661  0.80243512    -0.79280
O2032       O  0.01034855  0.93671698  0.83216543    -0.79460
C2033       C  0.02268720  0.95408316  0.84901084     1.01150
O2034       O  0.94815084  0.86322590  0.87860791    -0.86790
O2035       O  0.88963552  0.87986764  0.87721250    -0.83850
C2036       C  0.86249356  0.84960820  0.86899965     0.96690
O2037       O  0.86308906  0.84210291  0.85036564    -0.83880
O2038       O  0.88962947  0.83670150  0.81323681    -0.86480
C2039       C  0.90277907  0.81446290  0.81758699     1.01160
O2040       O  0.93358657  0.82676889  0.82772106    -0.79300
O2041       O  0.99032966  0.86866014  0.85520857    -0.79450
C2042       C  0.97143359  0.85366760  0.87139639     1.01130
Cr2043     Cr  0.94581761  0.90842369  0.86882575     1.93740
Cr2044     Cr  0.89406760  0.88081258  0.83050138     1.93210
Cr2045     Cr  0.97104493  0.88207394  0.83028797     1.39100
O2046       O  0.93700865  0.89046553  0.84329680    -1.24540
O2047       O  0.01770328  0.12346503  0.84502310    -0.86790
O2048       O  0.98072247  0.08888922  0.81020039    -0.83840
C2049       C  0.95505745  0.06475104  0.79855553     0.96670
O2050       O  0.91947103  0.05121685  0.80223004    -0.83870
O2051       O  0.90875983  0.00002977  0.83311558    -0.86510
C2052       C  0.91381478  0.98927207  0.85047383     1.01200
O2053       O  0.91905097  0.00953080  0.86639463    -0.79280
O2054       O  0.99255709  0.06768925  0.86105297    -0.79460
C2055       C  0.02107798  0.09618053  0.85283734     1.01150
O2056       O  0.96238415  0.14965085  0.84985151    -0.86790
O2057       O  0.93145721  0.12259980  0.81262010    -0.83850
C2058       C  0.89593184  0.10933378  0.81666430     0.96690
O2059       O  0.87702007  0.07801275  0.82628516    -0.83880
O2060       O  0.86112988  0.02283428  0.85471764    -0.86480
C2061       C  0.86491608  0.04193823  0.87086154     1.01160
O2062       O  0.89764885  0.06567696  0.87799701    -0.79300
O2063       O  0.97321552  0.12337818  0.87682671    -0.79450
C2064       C  0.97000477  0.15035926  0.86855660     1.01130
Cr2065     Cr  0.97064481  0.11812222  0.83032058     1.93740
Cr2066     Cr  0.89462067  0.04048475  0.82993839     1.93210
Cr2067     Cr  0.94506116  0.06719426  0.86879628     1.39100
O2068       O  0.93673662  0.07515733  0.84302688    -1.24540
O2069       O  0.00200807  0.96174065  0.72743390    -0.86790
O2070       O  0.07005264  0.02670293  0.73671802    -0.83840
C2071       C  0.06974682  0.05078394  0.72422853     0.96670
O2072       O  0.04675382  0.06347896  0.72607463    -0.83870
O2073       O  0.98375204  0.06786893  0.73686646    -0.86510
C2074       C  0.96058630  0.04324230  0.72424335     1.01200
O2075       O  0.94701064  0.00768583  0.72691487    -0.79280
O2076       O  0.94285416  0.94142313  0.73863745    -0.79460
C2077       C  0.96597572  0.94069093  0.72570369     1.01150
O2078       O  0.98629199  0.94306288  0.76977923    -0.86790
O2079       O  0.05087274  0.01175332  0.77898058    -0.83850
C2080       C  0.07161206  0.04788020  0.78046277     0.96690
O2081       O  0.07048399  0.07056527  0.76741245    -0.83880
O2082       O  0.00330359  0.06579931  0.77864541    -0.86480
C2083       C  0.96761223  0.05231149  0.78099151     1.01160
O2084       O  0.94336729  0.02813833  0.76852188    -0.79300
O2085       O  0.94893749  0.96611783  0.77982867    -0.79450
C2086       C  0.96172099  0.94328676  0.78195779     1.01130
Cr2087     Cr  0.02562136  0.98742891  0.75322497     1.93740
Cr2088     Cr  0.02447503  0.06363701  0.75229437     1.93210
Cr2089     Cr  0.94884390  0.98749384  0.75346482     1.39100
O2090       O  0.99974003  0.01279079  0.75301760    -1.24540
O2091       O  0.86509441  0.84279965  0.65632900    -0.86790
O2092       O  0.89082784  0.83699121  0.69324702    -0.83840
C2093       C  0.90267114  0.81346821  0.68940782     0.96670
O2094       O  0.93400512  0.82419868  0.67997592    -0.83870
O2095       O  0.99165068  0.86428525  0.65212088    -0.86510
C2096       C  0.97346932  0.84995789  0.63565872     1.01200
O2097       O  0.95033751  0.85959649  0.62839445    -0.79280
O2098       O  0.89338593  0.87831211  0.62904337    -0.79460
C2099       C  0.86546708  0.84900667  0.63745867     1.01150
O2100       O  0.89369822  0.92407818  0.66117573    -0.86790
O2101       O  0.92753350  0.92004837  0.69675868    -0.83850
C2102       C  0.95074118  0.91624726  0.70818700     0.96690
O2103       O  0.96164328  0.89223449  0.70431537    -0.83880
O2104       O  0.01332517  0.93351484  0.67456165    -0.86480
C2105       C  0.02573981  0.95067775  0.65767276     1.01160
O2106       O  0.00716920  0.93660748  0.64113386    -0.79300
O2107       O  0.94941134  0.95317113  0.64500348    -0.79450
C2108       C  0.92073467  0.95375967  0.65257339     1.01130
Cr2109     Cr  0.89735824  0.88163432  0.67600436     1.93740
Cr2110     Cr  0.97284305  0.87921528  0.67674796     1.93210
Cr2111     Cr  0.94934656  0.90568027  0.63770011     1.39100
O2112       O  0.93977879  0.88874621  0.66340898    -1.24540
O2113       O  0.13518677  0.12024314  0.62881891    -0.86790
O2114       O  0.15197924  0.06181564  0.62812530    -0.83840
C2115       C  0.16223272  0.03934041  0.63572411     0.96670
O2116       O  0.14843624  0.02172172  0.65240738    -0.83870
O2117       O  0.18847530  0.07880706  0.68026079    -0.86510
C2118       C  0.19967268  0.11031129  0.68954398     1.01200
O2119       O  0.17652080  0.12257022  0.69322102    -0.79280
O2120       O  0.17250709  0.14766120  0.65570540    -0.79460
C2121       C  0.16531405  0.14767338  0.63698869     1.01150
O2122       O  0.05975962  0.06587652  0.64524241    -0.86790
O2123       O  0.07505493  0.00652065  0.64115638    -0.83850
C2124       C  0.06180045  0.98760374  0.65766975     0.96690
O2125       O  0.07890364  0.00034431  0.67454192    -0.83880
O2126       O  0.11947777  0.05264477  0.70426384    -0.86480
C2127       C  0.09580907  0.06444707  0.70725133     1.01160
O2128       O  0.09384677  0.08811172  0.69542015    -0.79300
O2129       O  0.09208027  0.12226344  0.66051583    -0.79450
C2130       C  0.06091428  0.09514524  0.65326987     1.01130
Cr2131     Cr  0.10669833  0.06427285  0.63759349     1.93740
Cr2132     Cr  0.13321441  0.04068465  0.67687346     1.93210
Cr2133     Cr  0.13315386  0.11710929  0.67537636     1.39100
O2134       O  0.12445527  0.07394605  0.66317172    -1.24540
O2135       O  0.99128981  0.14979020  0.65062339    -0.86790
O2136       O  0.93535106  0.13308299  0.67955015    -0.83840
C2137       C  0.90398754  0.11273903  0.68903597     0.96670
O2138       O  0.89139140  0.07706679  0.69217646    -0.83870
O2139       O  0.86563913  0.04739003  0.65497079    -0.86510
C2140       C  0.86505762  0.04030142  0.63622993     1.01200
O2141       O  0.89218985  0.03759607  0.62774303    -0.79280
O2142       O  0.94962451  0.11328951  0.62683645    -0.79460
C2143       C  0.97285796  0.14595848  0.63423223     1.01150
O2144       O  0.01453491  0.10235377  0.67189902    -0.86790
O2145       O  0.96266713  0.09078884  0.70261486    -0.83850
C2146       C  0.94945315  0.05528822  0.70619943     0.96690
O2147       O  0.92671756  0.02950403  0.69415515    -0.83880
O2148       O  0.89247598  0.99293708  0.65914793    -0.86480
C2149       C  0.92018131  0.99001935  0.65162786     1.01160
O2150       O  0.94855402  0.01872761  0.64351513    -0.79300
O2151       O  0.00587659  0.09236769  0.63856386    -0.79450
C2152       C  0.02555851  0.09711474  0.65463171     1.01130
Cr2153     Cr  0.97363116  0.11603869  0.67519506     1.93740
Cr2154     Cr  0.89711117  0.03918164  0.67421935     1.93210
Cr2155     Cr  0.94834721  0.06601547  0.63594131     1.39100
O2156       O  0.93974344  0.07396271  0.66173371    -1.24540
O2157       O  0.95075399  0.67526437  0.89392370    -0.86790
O2158       O  0.94140591  0.69416924  0.93219579    -0.83840
C2159       C  0.94774324  0.71695757  0.94678618     0.96670
O2160       O  0.94634021  0.74770118  0.94461364    -0.83870
O2161       O  0.01717517  0.79582128  0.92735223    -0.86510
C2162       C  0.04400690  0.80926113  0.91417960     1.01200
O2163       O  0.03598867  0.80437328  0.89516067    -0.79280
O2164       O  0.00805961  0.72729816  0.89059198    -0.79460
C2165       C  0.98732293  0.69138212  0.89309131     1.01150
O2166       O  0.89657287  0.69870653  0.88013383    -0.86790
O2167       O  0.88201415  0.71115187  0.91911624    -0.83850
C2168       C  0.88084497  0.74222281  0.91728332     0.96690
O2169       O  0.91148220  0.77423681  0.91510806    -0.83880
O2170       O  0.98203242  0.82623203  0.90045433    -0.86480
C2171       C  0.97553246  0.82384207  0.88139080     1.01160
O2172       O  0.97184619  0.79567234  0.87090264    -0.79300
O2173       O  0.94985871  0.71988146  0.86209326    -0.79450
C2174       C  0.91325943  0.70286922  0.86322337     1.01130
Cr2175     Cr  0.92038384  0.69850283  0.90607223     1.93740
Cr2176     Cr  0.96374842  0.78328939  0.92066482     1.93210
Cr2177     Cr  0.98904046  0.76072881  0.88117480     1.39100
O2178       O  0.95769178  0.74750617  0.90265492    -1.24540
O2179       O  0.94267483  0.69085417  0.57456467    -0.86790
O2180       O  0.95295244  0.67206250  0.61254754    -0.83840
C2181       C  0.98958463  0.68836396  0.61300033     0.96670
O2182       O  0.01026853  0.72421822  0.61561809    -0.83870
O2183       O  0.03888555  0.80133826  0.61119500    -0.86510
C2184       C  0.04675171  0.80604794  0.59215004     1.01200
O2185       O  0.01962557  0.79246611  0.57915972    -0.79280
O2186       O  0.94870648  0.74473543  0.56207561    -0.79460
C2187       C  0.94977393  0.71382325  0.55999540     1.01150
O2188       O  0.88359362  0.70832106  0.58819101    -0.86790
O2189       O  0.89819458  0.69413768  0.62729548    -0.83850
C2190       C  0.91599157  0.70028527  0.64402096     0.96690
O2191       O  0.95269061  0.71760777  0.64457613    -0.83880
O2192       O  0.97498247  0.79271392  0.63585591    -0.86480
C2193       C  0.97811350  0.82065244  0.62544790     1.01160
O2194       O  0.98447441  0.82316792  0.60634568    -0.79300
O2195       O  0.91402463  0.77172736  0.59132209    -0.79450
C2196       C  0.88311472  0.73992174  0.58921843     1.01130
Cr2197     Cr  0.92208137  0.69517347  0.60088649     1.93740
Cr2198     Cr  0.99172089  0.75777980  0.62530978     1.93210
Cr2199     Cr  0.96617946  0.78025071  0.58601435     1.39100
O2200       O  0.95969585  0.74438735  0.60412842    -1.24540
O2201       O  0.73576425  0.69349265  0.93200978    -0.86790
O2202       O  0.70657676  0.67408123  0.89404960    -0.83840
C2203       C  0.68615952  0.69030525  0.89375766     0.96670
O2204       O  0.70111621  0.72614198  0.89119164    -0.83870
O2205       O  0.74965399  0.80332627  0.89512088    -0.86510
C2206       C  0.74672651  0.80842435  0.91414677     1.01200
O2207       O  0.76064906  0.79529681  0.92716465    -0.79280
O2208       O  0.78369575  0.74764857  0.94429657    -0.79460
C2209       C  0.75166678  0.71680328  0.94646397     1.01150
O2210       O  0.81185738  0.71053081  0.91844474    -0.86790
O2211       O  0.78341531  0.69620033  0.87927901    -0.83850
C2212       C  0.77150835  0.70202531  0.86254294     0.96690
O2213       O  0.75144759  0.71867098  0.86207880    -0.83880
O2214       O  0.80424854  0.79292631  0.87079414    -0.86480
C2215       C  0.82943404  0.82172595  0.88051793     1.01160
O2216       O  0.82612914  0.82573839  0.89954403    -0.79300
O2217       O  0.84491427  0.77382616  0.91475094    -0.79450
C2218       C  0.84387636  0.74194327  0.91701121     1.01130
Cr2219     Cr  0.76046487  0.69733099  0.90571204     1.93740
Cr2220     Cr  0.75289076  0.75923371  0.88126943     1.93210
Cr2221     Cr  0.80165349  0.78286629  0.92020547     1.39100
O2222       O  0.77183603  0.74643855  0.90241050    -1.24540
O2223       O  0.33875528  0.30650517  0.89387879    -0.86790
O2224       O  0.31905908  0.27720576  0.93186583    -0.83840
C2225       C  0.29578941  0.26113573  0.94631475     0.96670
O2226       O  0.26485616  0.22917180  0.94403909    -0.83870
O2227       O  0.21714833  0.25199173  0.92683309    -0.86510
C2228       C  0.20417060  0.26612600  0.91386461     1.01200
O2229       O  0.20945357  0.26350086  0.89482642    -0.79280
O2230       O  0.28671273  0.31196422  0.89092960    -0.79460
C2231       C  0.32257957  0.32696000  0.89342545     1.01150
O2232       O  0.31672048  0.22974017  0.87912185    -0.86790
O2233       O  0.30218069  0.20117622  0.91828564    -0.83850
C2234       C  0.27081698  0.16909748  0.91684370     0.96690
O2235       O  0.23893292  0.16798191  0.91437826    -0.83880
O2236       O  0.18689840  0.18666288  0.89903420    -0.86480
C2237       C  0.19063133  0.18373920  0.87992192     1.01160
O2238       O  0.21957368  0.20888868  0.87028002    -0.79300
O2239       O  0.29412043  0.26154207  0.86184747    -0.79450
C2240       C  0.31092884  0.24163389  0.86237368     1.01130
Cr2241     Cr  0.31537737  0.25258307  0.90553942     1.93740
Cr2242     Cr  0.22973641  0.21115394  0.91982073     1.93210
Cr2243     Cr  0.25351400  0.26017423  0.88096469     1.39100
O2244       O  0.26623267  0.24111698  0.90210857    -1.24540
O2245       O  0.70737106  0.06202938  0.89416039    -0.86790
O2246       O  0.73532289  0.07088011  0.93232093    -0.83840
C2247       C  0.75096571  0.06340736  0.94686015     0.96670
O2248       O  0.78263311  0.06367231  0.94481645    -0.83870
O2249       O  0.76125826  0.99335232  0.92688719    -0.86510
C2250       C  0.74690419  0.96721393  0.91332263     1.01200
O2251       O  0.75016203  0.97621499  0.89445427    -0.79280
O2252       O  0.70195799  0.00472740  0.89057124    -0.79460
C2253       C  0.68689032  0.02542947  0.89351610     1.01150
O2254       O  0.78557777  0.11639742  0.88063922    -0.86790
O2255       O  0.81182467  0.13014205  0.91967783    -0.83850
C2256       C  0.84403502  0.13120738  0.91798030     0.96690
O2257       O  0.84524171  0.10041407  0.91582282    -0.83880
O2258       O  0.82702021  0.03052669  0.90008449    -0.86480
C2259       C  0.83091007  0.03730501  0.88102859     1.01160
O2260       O  0.80620397  0.04084069  0.87068531    -0.79300
O2261       O  0.75303747  0.06365246  0.86231442    -0.79450
C2262       C  0.77341156  0.10016710  0.86361267     1.01130
Cr2263     Cr  0.76099002  0.09208256  0.90638953     1.93740
Cr2264     Cr  0.80183427  0.04760734  0.92069181     1.93210
Cr2265     Cr  0.75420594  0.02376682  0.88103434     1.39100
O2266       O  0.77236348  0.05445564  0.90278440    -1.24540
O2267       O  0.93987813  0.27617706  0.93267966    -0.86790
O2268       O  0.95066829  0.30615276  0.89487619    -0.83840
C2269       C  0.98733326  0.32655948  0.89452463     0.96670
O2270       O  0.00814621  0.31149808  0.89196041    -0.83870
O2271       O  0.03620952  0.26262241  0.89471133    -0.86510
C2272       C  0.04519794  0.26568191  0.91353536     1.01200
O2273       O  0.01894715  0.25113814  0.92699936    -0.79280
O2274       O  0.94872947  0.22959516  0.94483803    -0.79460
C2275       C  0.94815229  0.26083269  0.94706026     1.01150
O2276       O  0.88136358  0.20037210  0.91883049    -0.86790
O2277       O  0.89618920  0.22907868  0.87980880    -0.83850
C2278       C  0.91408330  0.24166276  0.86319699     0.96690
O2279       O  0.95053388  0.26255953  0.86287873    -0.83880
O2280       O  0.97108074  0.20857952  0.87070879    -0.86480
C2281       C  0.97467431  0.18315066  0.88023451     1.01160
O2282       O  0.98175924  0.18589678  0.89930276    -0.79300
O2283       O  0.91183690  0.16742490  0.91562658    -0.79450
C2284       C  0.88086968  0.16834740  0.91770951     1.01130
Cr2285     Cr  0.91977863  0.25189798  0.90628320     1.93740
Cr2286     Cr  0.98909623  0.25990752  0.88161149     1.93210
Cr2287     Cr  0.96465983  0.21074543  0.92048260     1.39100
O2288       O  0.95771166  0.24073176  0.90290910    -1.24540
O2289       O  0.31872391  0.07191180  0.93240549    -0.86790
O2290       O  0.33786813  0.06248868  0.89418744    -0.83840
C2291       C  0.32177076  0.02592636  0.89327306     0.96670
O2292       O  0.28590443  0.00521697  0.89059092    -0.83870
O2293       O  0.20908815  0.97738738  0.89477546    -0.86510
C2294       C  0.20329814  0.96864067  0.91366716     1.01200
O2295       O  0.21560977  0.99489754  0.92718446    -0.79280
O2296       O  0.26456466  0.06579752  0.94472602    -0.79460
C2297       C  0.29570368  0.06512701  0.94693756     1.01150
O2298       O  0.30171266  0.13108864  0.91922537    -0.86790
O2299       O  0.31438218  0.11668791  0.88025811    -0.83850
C2300       C  0.31038534  0.10009115  0.86333037     0.96690
O2301       O  0.29363728  0.06355016  0.86219570    -0.83880
O2302       O  0.21786467  0.04177349  0.87083059    -0.86480
C2303       C  0.18962124  0.03815966  0.88122291     1.01160
O2304       O  0.18679802  0.03129658  0.90024289    -0.79300
O2305       O  0.23862347  0.10143160  0.91527826    -0.79450
C2306       C  0.27060787  0.13214770  0.91734359     1.01130
Cr2307     Cr  0.31443875  0.09278519  0.90623964     1.93740
Cr2308     Cr  0.25264566  0.02437736  0.88112353     1.93210
Cr2309     Cr  0.22925536  0.04894479  0.92065533     1.39100
O2310       O  0.26544941  0.05530177  0.90275728    -1.24540
O2311       O  0.70958361  0.67350777  0.61162882    -0.86790
O2312       O  0.73851027  0.69293652  0.57358799    -0.83840
C2313       C  0.75430203  0.71635544  0.55918267     0.96670
O2314       O  0.78591228  0.74780050  0.56139226    -0.83870
O2315       O  0.76495710  0.79718330  0.57916926    -0.86510
C2316       C  0.75017776  0.80859237  0.59269356     1.01200
O2317       O  0.75280397  0.80221120  0.61152942    -0.79280
O2318       O  0.70400617  0.72541333  0.61475125    -0.79460
C2319       C  0.68901437  0.68957357  0.61218078     1.01150
O2320       O  0.78748056  0.69718877  0.62570262    -0.86790
O2321       O  0.81431348  0.70961899  0.58670057    -0.83850
C2322       C  0.84649182  0.74054684  0.58869259     0.96690
O2323       O  0.84786100  0.77262990  0.59087304    -0.83880
O2324       O  0.82999460  0.82488191  0.60671565    -0.86480
C2325       C  0.83277344  0.82070874  0.62578009     1.01160
O2326       O  0.80748564  0.79163354  0.63534054    -0.79300
O2327       O  0.75374790  0.71664167  0.64350724    -0.79450
C2328       C  0.77467665  0.70105734  0.64259050     1.01130
Cr2329     Cr  0.76343536  0.69703800  0.59969629     1.93740
Cr2330     Cr  0.80497236  0.78277543  0.58569628     1.93210
Cr2331     Cr  0.75589534  0.75805802  0.62475250     1.39100
O2332       O  0.77467864  0.74598559  0.60321684    -1.24540
O2333       O  0.73709202  0.07005394  0.57433149    -0.86790
O2334       O  0.70913568  0.06050583  0.61256023    -0.83840
C2335       C  0.68867441  0.02388394  0.61296552     0.96670
O2336       O  0.70371139  0.00302076  0.61535072    -0.83870
O2337       O  0.75255094  0.97484370  0.61098528    -0.86510
C2338       C  0.74916577  0.96671724  0.59196616     1.01200
O2339       O  0.76258667  0.99357543  0.57883746    -0.79280
O2340       O  0.78509375  0.06419410  0.56168259    -0.79460
C2341       C  0.75294334  0.06293455  0.55973641     1.01150
O2342       O  0.81355368  0.12903535  0.58717034    -0.86790
O2343       O  0.78722303  0.11466671  0.62633773    -0.83850
C2344       C  0.77506897  0.09792882  0.64327345     0.96690
O2345       O  0.75430838  0.06135013  0.64413956    -0.83880
O2346       O  0.80744634  0.04003046  0.63486338    -0.86480
C2347       C  0.83213807  0.03585339  0.62494748     1.01160
O2348       O  0.82842608  0.02847096  0.60593721    -0.79300
O2349       O  0.84700526  0.09924040  0.59092790    -0.79450
C2350       C  0.84572628  0.12998801  0.58877792     1.01130
Cr2351     Cr  0.76269722  0.09093430  0.60035266     1.93740
Cr2352     Cr  0.75575578  0.02205528  0.62487116     1.93210
Cr2353     Cr  0.80365826  0.04690930  0.58553593     1.39100
O2354       O  0.77402958  0.05331623  0.60349817    -1.24540
O2355       O  0.32066226  0.27452878  0.57333497    -0.86790
O2356       O  0.34006100  0.30374375  0.61137282    -0.83840
C2357       C  0.32402420  0.32436200  0.61210373     0.96670
O2358       O  0.28814867  0.30934999  0.61456547    -0.83870
O2359       O  0.21129225  0.26038489  0.61114954    -0.86510
C2360       C  0.20484795  0.26293580  0.59230556     1.01200
O2361       O  0.21646677  0.24835695  0.57878216    -0.79280
O2362       O  0.26577408  0.22715995  0.56111628    -0.79460
C2363       C  0.29722894  0.25873872  0.55892301     1.01150
O2364       O  0.30368344  0.19861414  0.58659906    -0.86790
O2365       O  0.31625489  0.22574843  0.62555708    -0.83850
C2366       C  0.31233028  0.23852809  0.64244274     0.96690
O2367       O  0.29686751  0.25957313  0.64329918    -0.83880
O2368       O  0.22218571  0.20580865  0.63489025    -0.86480
C2369       C  0.19316050  0.18047789  0.62532790     1.01160
O2370       O  0.18865958  0.18346831  0.60633524    -0.79300
O2371       O  0.24061103  0.16528879  0.59059074    -0.79450
C2372       C  0.27260935  0.16648327  0.58848300     1.01130
Cr2373     Cr  0.31647975  0.24972382  0.59949264     1.93740
Cr2374     Cr  0.25550667  0.25740025  0.62444190     1.93210
Cr2375     Cr  0.23075885  0.20831593  0.58536718     1.39100
O2376       O  0.26758736  0.23863181  0.60291403    -1.24540
O2377       O  0.95281465  0.30376779  0.61256465    -0.86790
O2378       O  0.94212319  0.27541213  0.57436480    -0.83840
C2379       C  0.94904514  0.25965185  0.55964705     0.96670
O2380       O  0.94780223  0.22756242  0.56150590    -0.83870
O2381       O  0.01900210  0.25034964  0.57837848    -0.86510
C2382       C  0.04611728  0.26337710  0.59139367     1.01200
O2383       O  0.03827700  0.25964822  0.61041205    -0.79280
O2384       O  0.01017389  0.30869400  0.61508972    -0.79460
C2385       C  0.98942658  0.32396108  0.61287977     1.01150
O2386       O  0.89828385  0.22699918  0.62704196    -0.86790
O2387       O  0.88311515  0.19902194  0.58783449    -0.83850
C2388       C  0.88247092  0.16690281  0.58884611     0.96690
O2389       O  0.91333438  0.16572323  0.59054681    -0.83880
O2390       O  0.98384609  0.18412944  0.60516826    -0.86480
C2391       C  0.97746041  0.17998283  0.62425555     1.01160
O2392       O  0.97448508  0.20468596  0.63487691    -0.79300
O2393       O  0.95309906  0.25806893  0.64402659    -0.79450
C2394       C  0.91645254  0.23869744  0.64365972     1.01130
Cr2395     Cr  0.92178291  0.25018599  0.60064741     1.93740
Cr2396     Cr  0.96550491  0.20914300  0.58516157     1.93210
Cr2397     Cr  0.99153651  0.25651707  0.62461155     1.39100
O2398       O  0.95931867  0.23833970  0.60351672    -1.24540
O2399       O  0.34059449  0.06006351  0.61267483    -0.86790
O2400       O  0.32184808  0.07015184  0.57464077    -0.83840
C2401       C  0.29882039  0.06269971  0.56005639     0.96670
O2402       O  0.26740289  0.06285871  0.56208071    -0.83870
O2403       O  0.21836729  0.99197900  0.57946073    -0.86510
C2404       C  0.20610756  0.96548559  0.59282625     1.01200
O2405       O  0.21173062  0.97413263  0.61173102    -0.79280
O2406       O  0.28852003  0.00279571  0.61592027    -0.79460
C2407       C  0.32433382  0.02346603  0.61317379     1.01150
O2408       O  0.31839396  0.11478722  0.62726243    -0.86790
O2409       O  0.30447520  0.12912050  0.58806442    -0.83850
C2410       C  0.27295670  0.12969554  0.58898666     0.96690
O2411       O  0.24106710  0.09880648  0.59101348    -0.83880
O2412       O  0.18927267  0.02870726  0.60642635    -0.86480
C2413       C  0.19171010  0.03482580  0.62554758     1.01160
O2414       O  0.21972520  0.03801608  0.63595905    -0.79300
O2415       O  0.29512478  0.06048656  0.64463500    -0.79450
C2416       C  0.31247616  0.09712027  0.64400597     1.01130
Cr2417     Cr  0.31736437  0.09069594  0.60091064     1.93740
Cr2418     Cr  0.23194762  0.04620883  0.58604208     1.93210
Cr2419     Cr  0.25494040  0.02139488  0.62551610     1.39100
O2420       O  0.26806686  0.05296473  0.60415712    -1.24540
O2421       O  0.71962438  0.08895574  0.48944672    -0.86790
O2422       O  0.63971220  0.05070573  0.48883739    -0.83840
C2423       C  0.62683254  0.02840489  0.47330786     0.96670
O2424       O  0.62451845  0.99560958  0.47376426    -0.83870
O2425       O  0.66152565  0.95415929  0.47489394    -0.86510
C2426       C  0.69440589  0.97370899  0.46644448     1.01200
O2427       O  0.72143910  0.00359124  0.47442093    -0.79280
O2428       O  0.75954800  0.06855687  0.49788124    -0.79460
C2429       C  0.75336969  0.09345192  0.48935264     1.01150
O2430       O  0.71956650  0.07023454  0.53213320    -0.86790
O2431       O  0.64113237  0.02917073  0.53285014    -0.83850
C2432       C  0.61060682  0.99643986  0.53322347     0.96690
O2433       O  0.60100731  0.97462093  0.51754140    -0.83880
O2434       O  0.64270669  0.93713247  0.51796466    -0.86480
C2435       C  0.67079980  0.93085079  0.51790271     1.01160
O2436       O  0.70206296  0.95465922  0.50915482    -0.79300
O2437       O  0.72957292  0.02038969  0.53279498    -0.79450
C2438       C  0.73292814  0.05069381  0.54059044     1.01130
Cr2439     Cr  0.67936531  0.05587041  0.51020650     1.93740
Cr2440     Cr  0.63579857  0.96921944  0.49661951     1.93210
Cr2441     Cr  0.72404327  0.01183969  0.50357871     1.39100
O2442       O  0.67951715  0.01241919  0.50339580    -1.24540
O2443       O  0.93833886  0.00916508  0.14572990    -0.86790
O2444       O  0.92322666  0.93553036  0.14088109    -0.83840
C2445       C  0.93746724  0.93075313  0.15729446     0.96670
O2446       O  0.92049897  0.92571154  0.17425811    -0.83870
O2447       O  0.87785929  0.93328033  0.20418321    -0.86510
C2448       C  0.90178042  0.96802041  0.20834331     1.01200
O2449       O  0.90483497  0.99533899  0.19750027    -0.79280
O2450       O  0.90877128  0.03455489  0.16273774    -0.79460
C2451       C  0.93872096  0.03780926  0.15403971     1.01150
O2452       O  0.86349495  0.98998476  0.12998082    -0.86790
O2453       O  0.84554826  0.91451680  0.12843749    -0.83850
C2454       C  0.83675671  0.88170215  0.13532759     0.96690
O2455       O  0.85235751  0.87795866  0.15129744    -0.83880
O2456       O  0.81104087  0.89344208  0.17889739    -0.86480
C2457       C  0.79900997  0.91207685  0.18914939     1.01160
O2458       O  0.82153203  0.94732103  0.19382633    -0.79300
O2459       O  0.82748242  0.98106085  0.15731207    -0.79450
C2460       C  0.83382564  0.98763884  0.13848676     1.01130
Cr2461     Cr  0.89144361  0.96174035  0.13799033     1.93740
Cr2462     Cr  0.86600965  0.91054615  0.17628825     1.93210
Cr2463     Cr  0.86630944  0.98729747  0.17693806     1.39100
O2464       O  0.87462131  0.95331121  0.16367099    -1.24540
O2465       O  0.92209605  0.02441916  0.33299851    -0.86790
O2466       O  0.87895471  0.97350171  0.30338854    -0.83840
C2467       C  0.90298674  0.96281581  0.29924608     0.96670
O2468       O  0.90649368  0.93890791  0.31015350    -0.83870
O2469       O  0.91100457  0.90420857  0.34497138    -0.86510
C2470       C  0.94104553  0.93107879  0.35347412     1.01200
O2471       O  0.94067937  0.95940333  0.36169525    -0.79280
O2472       O  0.92541954  0.01781917  0.36638220    -0.79460
C2473       C  0.93938207  0.03661398  0.34987689     1.01150
O2474       O  0.85430087  0.00410293  0.35612620    -0.86790
O2475       O  0.81244791  0.94671033  0.32870303    -0.83850
C2476       C  0.80059956  0.91616446  0.31833216     0.96690
O2477       O  0.82321253  0.90338050  0.31389591    -0.83880
O2478       O  0.82987164  0.87646447  0.35057294    -0.86480
C2479       C  0.83647355  0.87628321  0.36936569     1.01160
O2480       O  0.86607474  0.90376616  0.37782180    -0.79300
O2481       O  0.84796006  0.96117994  0.37915598    -0.79450
C2482       C  0.83888226  0.98490365  0.37212856     1.01130
Cr2483     Cr  0.86753957  0.98484361  0.33120052     1.93740
Cr2484     Cr  0.86829577  0.90867376  0.33080395     1.93210
Cr2485     Cr  0.89379592  0.95986955  0.36954154     1.39100
O2486       O  0.87656261  0.95104959  0.34392254    -1.24540
O2487       O  0.94824385  0.96222709  0.22671186    -0.86790
O2488       O  0.01239562  0.95740328  0.23669196    -0.83840
C2489       C  0.03679518  0.98218183  0.22456710     0.96670
O2490       O  0.04979030  0.01772391  0.22701783    -0.83870
O2491       O  0.05415218  0.08466504  0.23833697    -0.86510
C2492       C  0.02970953  0.08477745  0.22603690     1.01200
O2493       O  0.99399798  0.06313618  0.22863368    -0.79280
O2494       O  0.92708497  0.99987381  0.23893823    -0.79460
C2495       C  0.92667898  0.97680650  0.22557381     1.01150
O2496       O  0.92752699  0.95591072  0.26858174    -0.86790
O2497       O  0.99474607  0.95970679  0.27863893    -0.83850
C2498       C  0.03054684  0.97391178  0.28108212     0.96690
O2499       O  0.05467318  0.99827398  0.26861737    -0.83880
O2500       O  0.05029556  0.06084817  0.27995933    -0.86480
C2501       C  0.03743412  0.08351606  0.28242472     1.01160
O2502       O  0.01257925  0.08358944  0.27048590    -0.79300
O2503       O  0.94886893  0.01476191  0.28072875    -0.79450
C2504       C  0.92744017  0.97868391  0.28195316     1.01130
Cr2505     Cr  0.97245747  0.96215701  0.25266235     1.93740
Cr2506     Cr  0.04885734  0.03868686  0.25348887     1.93210
Cr2507     Cr  0.97236043  0.03871688  0.25468826     1.39100
O2508       O  0.99787537  0.01317691  0.25360818    -1.24540
O2509       O  0.99504820  0.08652166  0.36633599    -0.86790
O2510       O  0.05459629  0.07212267  0.36159671    -0.83840
C2511       C  0.08334643  0.07331321  0.35293261     0.96670
O2512       O  0.11015931  0.10447405  0.34542341    -0.83870
O2513       O  0.07555026  0.10710051  0.31099146    -0.86510
C2514       C  0.05150519  0.10918166  0.29954136     1.01200
O2515       O  0.03950882  0.13249295  0.30311458    -0.79280
O2516       O  0.98838407  0.09000685  0.33295580    -0.79460
C2517       C  0.97605958  0.07286673  0.34985418     1.01150
O2518       O  0.05050736  0.16386634  0.37929823    -0.86790
O2519       O  0.10909388  0.14726672  0.37790554    -0.83850
C2520       C  0.13615148  0.17747887  0.36963518     0.96690
O2521       O  0.13545352  0.18487305  0.35100157    -0.83880
O2522       O  0.10904739  0.18990586  0.31379594    -0.86480
C2523       C  0.09590082  0.21217978  0.31807682     1.01160
O2524       O  0.06512333  0.19994873  0.32823843    -0.79300
O2525       O  0.00838880  0.15827444  0.35581382    -0.79450
C2526       C  0.02709066  0.17322301  0.37206934     1.01130
Cr2527     Cr  0.05292409  0.11866687  0.36956943     1.93740
Cr2528     Cr  0.10463549  0.14597870  0.33119463     1.93210
Cr2529     Cr  0.02766832  0.14463273  0.33093376     1.39100
O2530       O  0.06169697  0.13638978  0.34398972    -1.24540
O2531       O  0.07983014  0.01760357  0.36706370    -0.86790
O2532       O  0.00624377  0.95962113  0.36179835    -0.83840
C2533       C  0.97764307  0.93107114  0.35367640     0.96670
O2534       O  0.98096651  0.90388392  0.34565932    -0.83870
O2535       O  0.01774210  0.93824720  0.31066451    -0.86510
C2536       C  0.04332717  0.96216007  0.29889311     1.01200
O2537       O  0.07895334  0.97608162  0.30266861    -0.79280
O2538       O  0.08965965  0.02706235  0.33375492    -0.79460
C2539       C  0.08484958  0.03782593  0.35117341     1.01150
O2540       O  0.10098192  0.96127308  0.37844019    -0.86790
O2541       O  0.02538186  0.90381453  0.37737155    -0.83850
C2542       C  0.02857100  0.87686375  0.36904839     0.96690
O2543       O  0.03623400  0.87765395  0.35034615    -0.83880
O2544       O  0.06704546  0.90458450  0.31310862    -0.86480
C2545       C  0.10261012  0.91789244  0.31708335     1.01160
O2546       O  0.12156110  0.94925862  0.32667128    -0.79300
O2547       O  0.13741239  0.00426816  0.35521420    -0.79450
C2548       C  0.13366978  0.98507449  0.37131098     1.01130
Cr2549     Cr  0.05366710  0.95996626  0.36937913     1.93740
Cr2550     Cr  0.02790120  0.90912065  0.33084425     1.93210
Cr2551     Cr  0.10387389  0.98671767  0.33042852     1.39100
O2552       O  0.06182937  0.95205248  0.34354585    -1.24540
O2553       O  0.97864290  0.10488458  0.16187941    -0.86790
O2554       O  0.01616105  0.10744596  0.19662461    -0.83840
C2555       C  0.04200963  0.10922773  0.20824381     0.96670
O2556       O  0.07751685  0.13097527  0.20432388    -0.83870
O2557       O  0.08744015  0.09024187  0.17314571    -0.86510
C2558       C  0.08243441  0.07470104  0.15570147     1.01200
O2559       O  0.07724930  0.08995810  0.13987309    -0.79280
O2560       O  0.00374750  0.07461858  0.14533247    -0.79460
C2561       C  0.97525926  0.07446575  0.15370965     1.01150
O2562       O  0.03363567  0.18634689  0.15703951    -0.86790
O2563       O  0.06530454  0.19035142  0.19402818    -0.83850
C2564       C  0.10079061  0.21246271  0.18984346     0.96690
O2565       O  0.11955388  0.19991420  0.18015441    -0.83880
O2566       O  0.13507600  0.16051962  0.15159895    -0.86480
C2567       C  0.13132843  0.17621052  0.13561189     1.01160
O2568       O  0.09858580  0.16760574  0.12862124    -0.79300
O2569       O  0.02289199  0.14962039  0.12990853    -0.79450
C2570       C  0.02602505  0.17965761  0.13832015     1.01130
Cr2571     Cr  0.02582467  0.14662001  0.17648084     1.93740
Cr2572     Cr  0.10183524  0.14484018  0.17646973     1.93210
Cr2573     Cr  0.05119348  0.12162751  0.13772021     1.39100
O2574       O  0.05960465  0.13758727  0.16355807    -1.24540
O2575       O  0.10662410  0.98956075  0.12868663    -0.86790
O2576       O  0.04813201  0.91442203  0.12740484    -0.83840
C2577       C  0.02486731  0.88169948  0.13470203     0.96670
O2578       O  0.00628985  0.87800303  0.15100802    -0.83870
O2579       O  0.06319735  0.89295792  0.17847448    -0.86510
C2580       C  0.09394082  0.91153072  0.18864092     1.01200
O2581       O  0.10716216  0.94700252  0.19277264    -0.79280
O2582       O  0.13315017  0.97815235  0.15547704    -0.79460
C2583       C  0.13371222  0.98628869  0.13686256     1.01150
O2584       O  0.05216796  0.01019492  0.14523100    -0.86790
O2585       O  0.99277057  0.93628342  0.14057559    -0.83850
C2586       C  0.97407274  0.93113497  0.15713744     0.96690
O2587       O  0.98662374  0.92643305  0.17398393    -0.83880
O2588       O  0.03794678  0.93507581  0.20365955    -0.86480
C2589       C  0.05016072  0.97041460  0.20724172     1.01160
O2590       O  0.07382521  0.99640764  0.19563982    -0.79300
O2591       O  0.10798388  0.03340409  0.16114098    -0.79450
C2592       C  0.08099667  0.03774024  0.15382619     1.01130
Cr2593     Cr  0.05055323  0.96201709  0.13717532     1.93740
Cr2594     Cr  0.02579497  0.91095924  0.17586542     1.93210
Cr2595     Cr  0.10263782  0.98644854  0.17537068     1.39100
O2596       O  0.05961966  0.95311214  0.16271034    -1.24540
O2597       O  0.04611244  0.72404665  0.11274970    -0.86790
O2598       O  0.05495477  0.75158994  0.07443483    -0.83840
C2599       C  0.04840273  0.76770259  0.05976751     0.96670
O2600       O  0.04995770  0.79994618  0.06177840    -0.83870
O2601       O  0.97915602  0.77712440  0.07902474    -0.86510
C2602       C  0.95221078  0.76373353  0.09212947     1.01200
O2603       O  0.96019936  0.76724765  0.11118570    -0.79280
O2604       O  0.98879296  0.71877431  0.11609548    -0.79460
C2605       C  0.00953680  0.70363240  0.11342988     1.01150
O2606       O  0.10055428  0.80186333  0.12630663    -0.86790
O2607       O  0.11437511  0.82824902  0.08719468    -0.83850
C2608       C  0.11543561  0.86045836  0.08893486     0.96690
O2609       O  0.08471622  0.86179909  0.09104572    -0.83880
O2610       O  0.01402733  0.84321265  0.10572609    -0.86480
C2611       C  0.02064401  0.84763734  0.12478295     1.01160
O2612       O  0.02444641  0.82336024  0.13537044    -0.79300
O2613       O  0.04740027  0.77037856  0.14451452    -0.79450
C2614       C  0.08409216  0.78974734  0.14330306     1.01130
Cr2615     Cr  0.07628398  0.77743768  0.10043794     1.93740
Cr2616     Cr  0.03248308  0.81836921  0.08563374     1.93210
Cr2617     Cr  0.00759849  0.77122981  0.12532539     1.39100
O2618       O  0.03887753  0.78911915  0.10381470    -1.24540
O2619       O  0.68257319  0.80129781  0.12609526    -0.86790
O2620       O  0.69529014  0.82834391  0.08714149    -0.83840
C2621       C  0.72637367  0.86053825  0.08891435     0.96670
O2622       O  0.75841165  0.86179367  0.09088994    -0.83870
O2623       O  0.81031183  0.84362087  0.10616339    -0.86510
C2624       C  0.80740779  0.84763423  0.12519300     1.01200
O2625       O  0.77926844  0.82285019  0.13556389    -0.79280
O2626       O  0.70348641  0.76909929  0.14419666    -0.79460
C2627       C  0.68675997  0.78895872  0.14305553     1.01150
O2628       O  0.65924207  0.72350099  0.11210103    -0.86790
O2629       O  0.67839200  0.75210348  0.07393152    -0.83850
C2630       C  0.70146109  0.76806202  0.05939503     0.96690
O2631       O  0.73267453  0.79978611  0.06156494    -0.83880
O2632       O  0.78177638  0.77817645  0.07922622    -0.86480
C2633       C  0.79377387  0.76394071  0.09274471     1.01160
O2634       O  0.78800566  0.76702126  0.11163232    -0.79300
O2635       O  0.71121860  0.71818959  0.11581518    -0.79450
C2636       C  0.67537453  0.70301574  0.11301331     1.01130
Cr2637     Cr  0.68265167  0.77729662  0.10010245     1.93740
Cr2638     Cr  0.76792162  0.81856588  0.08568308     1.93210
Cr2639     Cr  0.74446822  0.77067784  0.12525937     1.39100
O2640       O  0.73168927  0.78879768  0.10359679    -1.24540
O2641       O  0.65755536  0.96665559  0.11239840    -0.86790
O2642       O  0.67713966  0.95644885  0.07455524    -0.83840
C2643       C  0.70071400  0.96447710  0.06017054     0.96670
O2644       O  0.73235644  0.96475072  0.06244290    -0.83870
O2645       O  0.78080144  0.03514298  0.08022424    -0.86510
C2646       C  0.79254919  0.06148327  0.09365227     1.01200
O2647       O  0.78634067  0.05259197  0.11250415    -0.79280
O2648       O  0.70952377  0.02403710  0.11564286    -0.79460
C2649       C  0.67378850  0.00328791  0.11277725     1.01150
O2650       O  0.67991157  0.91198837  0.12739440    -0.86790
O2651       O  0.69445535  0.89779750  0.08828057    -0.83850
C2652       C  0.72598515  0.89730924  0.08943249     0.96690
O2653       O  0.75780028  0.92822888  0.09170050    -0.83880
O2654       O  0.80926347  0.99844941  0.10780312    -0.86480
C2655       C  0.80526640  0.99166137  0.12688664     1.01160
O2656       O  0.77612402  0.98761264  0.13648036    -0.79300
O2657       O  0.70141691  0.96618418  0.14461345    -0.79450
C2658       C  0.68530505  0.92963031  0.14412491     1.01130
Cr2659     Cr  0.68111178  0.93600558  0.10093347     1.93740
Cr2660     Cr  0.76711543  0.98095349  0.08678228     1.93210
Cr2661     Cr  0.74233245  0.00518760  0.12576986     1.39100
O2662       O  0.73017490  0.97390897  0.10441275    -1.24540
O2663       O  0.05893786  0.75069723  0.43257038    -0.86790
O2664       O  0.04776142  0.72087390  0.39470014    -0.83840
C2665       C  0.01109331  0.70048712  0.39446089     0.96670
O2666       O  0.99027485  0.71557291  0.39199803    -0.83870
O2667       O  0.96230705  0.76455853  0.39500847    -0.86510
C2668       C  0.95339357  0.76146419  0.41384188     1.01200
O2669       O  0.97969511  0.77583081  0.42728238    -0.79280
O2670       O  0.04991847  0.79704170  0.44496747    -0.79460
C2671       C  0.05051222  0.76579080  0.44703424     1.01150
O2672       O  0.11736801  0.82656258  0.41873086    -0.86790
O2673       O  0.10211471  0.79796081  0.37958175    -0.83850
C2674       C  0.08407693  0.78534987  0.36298793     0.96690
O2675       O  0.04760672  0.76456583  0.36277986    -0.83880
O2676       O  0.02727521  0.81857804  0.37100468    -0.86480
C2677       C  0.02384941  0.84401713  0.38064025     1.01160
O2678       O  0.01691223  0.84124009  0.39972635    -0.79300
O2679       O  0.08684132  0.85952858  0.41597355    -0.79450
C2680       C  0.11782921  0.85859195  0.41789141     1.01130
Cr2681     Cr  0.07879457  0.77509929  0.40614758     1.93740
Cr2682     Cr  0.00928246  0.76721882  0.38175530     1.93210
Cr2683     Cr  0.03399758  0.81617126  0.42075417     1.39100
O2684       O  0.04083857  0.78629515  0.40300424    -1.24540
O2685       O  0.67947017  0.95521148  0.43255542    -0.86790
O2686       O  0.66086530  0.96469620  0.39427247    -0.83840
C2687       C  0.67689800  0.00126018  0.39341362     0.96670
O2688       O  0.71279990  0.02205128  0.39091958    -0.83870
O2689       O  0.78959773  0.05015576  0.39542647    -0.86510
C2690       C  0.79525570  0.05897554  0.41432260     1.01200
O2691       O  0.78287935  0.03271708  0.42784261    -0.79280
O2692       O  0.73354902  0.96151615  0.44514006    -0.79460
C2693       C  0.70232913  0.96207756  0.44716617     1.01150
O2694       O  0.69689395  0.89624346  0.41959131    -0.86790
O2695       O  0.68486087  0.91069683  0.38054309    -0.83850
C2696       C  0.68892259  0.92729788  0.36362504     0.96690
O2697       O  0.70560789  0.96384720  0.36253688    -0.83880
O2698       O  0.78124551  0.98579022  0.37155619    -0.86480
C2699       C  0.80932231  0.98935670  0.38207437     1.01160
O2700       O  0.81198423  0.99630950  0.40107987    -0.79300
O2701       O  0.76004606  0.92600640  0.41594812    -0.79450
C2702       C  0.72804017  0.89522378  0.41785756     1.01130
Cr2703     Cr  0.68426881  0.93448937  0.40647805     1.93740
Cr2704     Cr  0.74628900  0.00307610  0.38163195     1.93210
Cr2705     Cr  0.76926817  0.97854818  0.42129528     1.39100
O2706       O  0.73327578  0.97212618  0.40323291    -1.24540
O2707       O  0.65995779  0.72067347  0.39415739    -0.86790
O2708       O  0.67911886  0.74993646  0.43211749    -0.83840
C2709       C  0.70226580  0.76586884  0.44661752     0.96670
O2710       O  0.73313126  0.79790256  0.44451022    -0.83870
O2711       O  0.78100264  0.77484452  0.42753436    -0.86510
C2712       C  0.79428504  0.76098066  0.41455156     1.01200
O2713       O  0.78926291  0.76384997  0.39551675    -0.79280
O2714       O  0.71207759  0.71528166  0.39138165    -0.79460
C2715       C  0.67617558  0.70023469  0.39373417     1.01150
O2716       O  0.68217972  0.79755813  0.37941380    -0.86790
O2717       O  0.69633186  0.82613147  0.41858175    -0.83850
C2718       C  0.72778401  0.85820504  0.41734125     0.96690
O2719       O  0.75968088  0.85924851  0.41506229    -0.83880
O2720       O  0.81171739  0.84033079  0.39995377    -0.86480
C2721       C  0.80809016  0.84348121  0.38086958     1.01160
O2722       O  0.77924476  0.81846104  0.37110248    -0.79300
O2723       O  0.70489668  0.76571222  0.36227176    -0.79450
C2724       C  0.68804601  0.78558288  0.36270853     1.01130
Cr2725     Cr  0.68317925  0.77465425  0.40584234     1.93740
Cr2726     Cr  0.76861725  0.81587663  0.42051486     1.93210
Cr2727     Cr  0.74530819  0.76711749  0.38155179     1.39100
O2728       O  0.73233816  0.78607172  0.40264067    -1.24540
O2729       O  0.05655545  0.33595122  0.07457092    -0.86790
O2730       O  0.04630998  0.35548548  0.11241601    -0.83840
C2731       C  0.00966032  0.33926904  0.11267156     0.96670
O2732       O  0.98884672  0.30347042  0.11537703    -0.83870
O2733       O  0.96025255  0.22622264  0.11199977    -0.86510
C2734       C  0.95208923  0.22086933  0.09300749     1.01200
O2735       O  0.97901715  0.23382851  0.07993364    -0.79280
O2736       O  0.04930110  0.28121292  0.06244363    -0.79460
C2737       C  0.04882586  0.31245960  0.06016793     1.01150
O2738       O  0.11530360  0.31854559  0.08835727    -0.86790
O2739       O  0.10090238  0.33307160  0.12745623    -0.83850
C2740       C  0.08312000  0.32741172  0.14416071     0.96690
O2741       O  0.04652659  0.31141928  0.14456947    -0.83880
O2742       O  0.02524983  0.23694230  0.13640690    -0.86480
C2743       C  0.02148790  0.20797578  0.12677303     1.01160
O2744       O  0.01445946  0.20395575  0.10769867    -0.79300
O2745       O  0.08488377  0.25522212  0.09191446    -0.79450
C2746       C  0.11576953  0.28698263  0.08955129     1.01130
Cr2747     Cr  0.07707491  0.33202250  0.10096735     1.93740
Cr2748     Cr  0.00758007  0.27055482  0.12558719     1.93210
Cr2749     Cr  0.03250926  0.24634749  0.08673668     1.39100
O2750       O  0.03928226  0.28301039  0.10439939    -1.24540
O2751       O  0.26057268  0.95642282  0.07428285    -0.86790
O2752       O  0.28981142  0.96698186  0.11229790    -0.83840
C2753       C  0.31022465  0.00361268  0.11266426     0.96670
O2754       O  0.29517186  0.02451849  0.11491114    -0.83870
O2755       O  0.24606433  0.05262036  0.11091479    -0.86510
C2756       C  0.24932132  0.06054700  0.09190645     1.01200
O2757       O  0.23571059  0.03351231  0.07887770    -0.79280
O2758       O  0.21278457  0.96278224  0.06182108    -0.79460
C2759       C  0.24479637  0.96382868  0.05975828     1.01150
O2760       O  0.18446125  0.89767870  0.08797573    -0.86790
O2761       O  0.21291882  0.91253157  0.12716739    -0.83850
C2762       C  0.22505240  0.93056218  0.14381447     0.96690
O2763       O  0.24521951  0.96718325  0.14409363    -0.83880
O2764       O  0.19191532  0.98786727  0.13515078    -0.86480
C2765       C  0.16673027  0.99141898  0.12537383     1.01160
O2766       O  0.17006224  0.99869413  0.10634980    -0.79300
O2767       O  0.15132763  0.92800037  0.09122687    -0.79450
C2768       C  0.15240502  0.89713196  0.08918460     1.01130
Cr2769     Cr  0.23587605  0.93606114  0.10064125     1.93740
Cr2770     Cr  0.24330739  0.00572159  0.12477903     1.93210
Cr2771     Cr  0.19466267  0.98020638  0.08579751     1.39100
O2772       O  0.22445773  0.97378718  0.10370434    -1.24540
O2773       O  0.28908352  0.35331257  0.11219434    -0.86790
O2774       O  0.26073264  0.33423485  0.07401055    -0.83840
C2775       C  0.24491390  0.31108573  0.05948177     0.96670
O2776       O  0.21319873  0.27982466  0.06161662    -0.83870
O2777       O  0.23452361  0.23061183  0.07933687    -0.86510
C2778       C  0.24889014  0.21873892  0.09284900     1.01200
O2779       O  0.24586260  0.22458708  0.11172711    -0.79280
O2780       O  0.29450592  0.30137021  0.11557978    -0.79460
C2781       C  0.30956028  0.33718000  0.11277890     1.01150
O2782       O  0.21132975  0.32984284  0.12611260    -0.86790
O2783       O  0.18460249  0.31742840  0.08708204    -0.83850
C2784       C  0.15241858  0.28643530  0.08893849     0.96690
O2785       O  0.15108918  0.25436137  0.09092300    -0.83880
O2786       O  0.16912583  0.20245407  0.10635925    -0.86480
C2787       C  0.16538030  0.20540909  0.12542420     1.01160
O2788       O  0.19030436  0.23352325  0.13575085    -0.79300
O2789       O  0.24396934  0.30932012  0.14413550    -0.79450
C2790       C  0.22382144  0.32574382  0.14304867     1.01130
Cr2791     Cr  0.23544504  0.32993062  0.10014052     1.93740
Cr2792     Cr  0.19421686  0.24464535  0.08576353     1.93210
Cr2793     Cr  0.24228457  0.26823490  0.12526609     1.39100
O2794       O  0.22398364  0.28089823  0.10363866    -1.24540
O2795       O  0.29121533  0.96496102  0.39421156    -0.86790
O2796       O  0.26355594  0.95615033  0.43239150    -0.83840
C2797       C  0.24811515  0.96375894  0.44697740     0.96670
O2798       O  0.21638041  0.96340856  0.44506825    -0.83870
O2799       O  0.23750917  0.03367646  0.42718827    -0.86510
C2800       C  0.25168847  0.05977312  0.41360905     1.01200
O2801       O  0.24832349  0.05069871  0.39474147    -0.79280
O2802       O  0.29653483  0.02223458  0.39075161    -0.79460
C2803       C  0.31167057  0.00157960  0.39359150     1.01150
O2804       O  0.21277407  0.91040217  0.38087079    -0.86790
O2805       O  0.18689352  0.89682064  0.41992748    -0.83850
C2806       C  0.15467240  0.89574873  0.41826543     0.96690
O2807       O  0.15346402  0.92655764  0.41621652    -0.83880
O2808       O  0.17159919  0.99640352  0.40049336    -0.86480
C2809       C  0.16764932  0.98964120  0.38142974     1.01160
O2810       O  0.19224154  0.98599941  0.37103944    -0.79300
O2811       O  0.24531660  0.96312150  0.36256384    -0.79450
C2812       C  0.22491797  0.92659361  0.36385274     1.01130
Cr2813     Cr  0.23763932  0.93485469  0.40655055     1.93740
Cr2814     Cr  0.19691823  0.97938384  0.42103568     1.93210
Cr2815     Cr  0.24425535  0.00311407  0.38129427     1.39100
O2816       O  0.22624082  0.97248019  0.40304220    -1.24540
O2817       O  0.26299931  0.33408717  0.43215098    -0.86790
O2818       O  0.29213097  0.35309353  0.39423825    -0.83840
C2819       C  0.31254487  0.33684450  0.39397165     0.96670
O2820       O  0.29753521  0.30096976  0.39152956    -0.83870
O2821       O  0.24892963  0.22381879  0.39557490    -0.86510
C2822       C  0.25196653  0.21885071  0.41459911     1.01200
O2823       O  0.23823440  0.23220276  0.42762205    -0.79280
O2824       O  0.21513446  0.28006902  0.44458375    -0.79460
C2825       C  0.24721218  0.31088559  0.44663040     1.01150
O2826       O  0.18676743  0.31679180  0.41865945    -0.86790
O2827       O  0.21514343  0.33078347  0.37951023    -0.83850
C2828       C  0.22710660  0.32491875  0.36280624     0.96690
O2829       O  0.24718442  0.30828642  0.36238914    -0.83880
O2830       O  0.19434682  0.23413851  0.37128266    -0.86480
C2831       C  0.16924291  0.20541134  0.38107149     1.01160
O2832       O  0.17267215  0.20150830  0.40008876    -0.79300
O2833       O  0.15377037  0.25343874  0.41517131    -0.79450
C2834       C  0.15475004  0.28531663  0.41734368     1.01130
Cr2835     Cr  0.23819569  0.32994570  0.40591908     1.93740
Cr2836     Cr  0.24573522  0.26784661  0.38165921     1.93210
Cr2837     Cr  0.19714378  0.24455434  0.42063798     1.39100
O2838       O  0.22685722  0.28082082  0.40275787    -1.24540
O2839       O  0.04771685  0.35167341  0.39408470    -0.86790
O2840       O  0.05715164  0.33316695  0.43240735    -0.83840
C2841       C  0.05084657  0.31052394  0.44705024     0.96670
O2842       O  0.05243881  0.27986679  0.44499704    -0.83870
O2843       O  0.98134851  0.23159379  0.42800348    -0.86510
C2844       C  0.95432444  0.21795295  0.41492988     1.01200
O2845       O  0.96218116  0.22252436  0.39587784    -0.79280
O2846       O  0.99035739  0.29961965  0.39103002    -0.79460
C2847       C  0.01114495  0.33557794  0.39332391     1.01150
O2848       O  0.10176669  0.32795640  0.38040175    -0.86790
O2849       O  0.11651281  0.31602702  0.41943283    -0.83850
C2850       C  0.11770881  0.28495715  0.41765720     0.96690
O2851       O  0.08704292  0.25289983  0.41558125    -0.83880
O2852       O  0.01629377  0.20070070  0.40111585    -0.86480
C2853       C  0.02273832  0.20293390  0.38204352     1.01160
O2854       O  0.02620202  0.23091232  0.37149274    -0.79300
O2855       O  0.04836974  0.30657015  0.36242810    -0.79450
C2856       C  0.08500756  0.32363886  0.36350197     1.01130
Cr2857     Cr  0.07808731  0.32852200  0.40632889     1.93740
Cr2858     Cr  0.03476448  0.24393116  0.42120245     1.93210
Cr2859     Cr  0.00916957  0.26599513  0.38168773     1.39100
O2860       O  0.04072183  0.27947652  0.40308227    -1.24540
O2861       O  0.92279658  0.29666322  0.01738167    -0.86790
O2862       O  0.96036840  0.37587572  0.01705449    -0.83840
C2863       C  0.98215127  0.38853874  0.03272946     0.96670
O2864       O  0.01482144  0.39048820  0.03260264    -0.83870
O2865       O  0.05618202  0.35305413  0.03236949    -0.86510
C2866       C  0.03677389  0.32015144  0.04082685     1.01200
O2867       O  0.00665017  0.29318694  0.03292289    -0.79280
O2868       O  0.94099559  0.25497590  0.00927699    -0.79460
C2869       C  0.91684385  0.26242060  0.01765376     1.01150
O2870       O  0.94074820  0.29489440  0.97447409    -0.86790
O2871       O  0.98224915  0.37366402  0.97352725    -0.83850
C2872       C  0.01488871  0.40432687  0.97329144     0.96690
O2873       O  0.03713157  0.41339910  0.98881554    -0.83880
O2874       O  0.07526467  0.37148573  0.98960587    -0.86480
C2875       C  0.07961888  0.34213691  0.98936304     1.01160
O2876       O  0.05477238  0.31111702  0.99790906    -0.79300
O2877       O  0.98971250  0.28362250  0.97445234    -0.79450
C2878       C  0.95990853  0.28076356  0.96633121     1.01130
Cr2879     Cr  0.95544788  0.33572048  0.99620496     1.93740
Cr2880     Cr  0.04192478  0.37875212  0.01022500     1.93210
Cr2881     Cr  0.99808613  0.29000055  0.00364452     1.39100
O2882       O  0.99857623  0.33513610  0.00328206    -1.24540
O2883       O  0.47492642  0.12267538  0.37657718    -0.86790
O2884       O  0.41931443  0.05008647  0.36679929    -0.83840
C2885       C  0.43879716  0.03305228  0.36673404     0.96670
O2886       O  0.44950144  0.02542926  0.38353154    -0.83870
O2887       O  0.47678033  0.03594548  0.42344530    -0.86510
C2888       C  0.50904188  0.06719596  0.42452258     1.01200
O2889       O  0.51066134  0.09960240  0.42413853    -0.79280
O2890       O  0.49726636  0.15383956  0.40582930    -0.79460
C2891       C  0.49982399  0.15149574  0.38637043     1.01150
O2892       O  0.42158864  0.13569745  0.39956701    -0.86790
O2893       O  0.36980629  0.05851257  0.39532754    -0.83850
C2894       C  0.35347479  0.02220521  0.39595938     0.96690
O2895       O  0.37274296  0.00494895  0.39827067    -0.83880
O2896       O  0.40084690  0.02039337  0.43794251    -0.86480
C2897       C  0.41386992  0.04234147  0.45347864     1.01160
O2898       O  0.44439710  0.07535792  0.45192628    -0.79300
O2899       O  0.42818293  0.12588953  0.43189872    -0.79450
C2900       C  0.41690288  0.14047677  0.41829444     1.01130
Cr2901     Cr  0.42274311  0.09037658  0.38650430     1.93740
Cr2902     Cr  0.42615039  0.02574853  0.41070915     1.93210
Cr2903     Cr  0.46792491  0.11075026  0.42700148     1.39100
O2904       O  0.43919939  0.07550959  0.40820771    -1.24540
O2905       O  0.55875719  0.50137949  0.69795732    -0.86790
O2906       O  0.49011118  0.43976312  0.68925891    -0.83840
C2907       C  0.47589645  0.43027838  0.70710981     0.96670
O2908       O  0.46093096  0.44785808  0.71577999    -0.83870
O2909       O  0.45697094  0.50958963  0.73115764    -0.86510
C2910       C  0.48772673  0.52988078  0.74155284     1.01200
O2911       O  0.51975129  0.54909108  0.73228532    -0.79280
O2912       O  0.57678554  0.56220511  0.70433386    -0.79460
C2913       C  0.58161159  0.53318848  0.70623017     1.01150
O2914       O  0.55401091  0.54209272  0.66179718    -0.86790
O2915       O  0.48143920  0.48382350  0.65578791    -0.83850
C2916       C  0.44533047  0.46400774  0.65780977     0.96690
O2917       O  0.43036818  0.45472236  0.67568713    -0.83880
O2918       O  0.43468787  0.52064044  0.68989558    -0.86480
C2919       C  0.45030705  0.55638123  0.69330350     1.01160
O2920       O  0.48275663  0.57453135  0.70234219    -0.79300
O2921       O  0.53654003  0.58266376  0.67350052    -0.79450
C2922       C  0.55033584  0.57156391  0.65927057     1.01130
Cr2923     Cr  0.51932942  0.49350068  0.67758409     1.93740
Cr2924     Cr  0.44964654  0.48538977  0.70248186     1.93210
Cr2925     Cr  0.52679827  0.56321547  0.70243162     1.39100
O2926       O  0.49860382  0.51414300  0.69422178    -1.24540
O2927       O  0.51136517  0.95375617  0.19026582    -0.86790
O2928       O  0.44178544  0.94525523  0.19825597    -0.83840
C2929       C  0.41808197  0.95347302  0.20610144     0.96670
O2930       O  0.42202319  0.98684358  0.20390305    -0.83870
O2931       O  0.47852876  0.03054861  0.23207850    -0.86510
C2932       C  0.51060452  0.04377151  0.24135819     1.01200
O2933       O  0.54170671  0.05685664  0.23095765    -0.79280
O2934       O  0.53963654  0.99271724  0.21622489    -0.79460
C2935       C  0.52490786  0.95955290  0.20837270     1.01150
O2936       O  0.51822141  0.00482788  0.15595939    -0.86790
O2937       O  0.44605929  0.99039468  0.16155479    -0.83850
C2938       C  0.44891347  0.02331661  0.15912547     0.96690
O2939       O  0.46154639  0.04784062  0.17352448    -0.83880
O2940       O  0.51387456  0.09383780  0.20225881    -0.86480
C2941       C  0.54628900  0.10942991  0.19314040     1.01160
O2942       O  0.56364916  0.09085104  0.18981575    -0.79300
O2943       O  0.56974967  0.02959756  0.17563936    -0.79450
C2944       C  0.55431352  0.02231049  0.15782270     1.01130
Cr2945     Cr  0.48098146  0.97699236  0.17785882     1.93740
Cr2946     Cr  0.47128013  0.03819471  0.20232754     1.93210
Cr2947     Cr  0.54991594  0.04067736  0.20240067     1.39100
O2948       O  0.50080522  0.01887023  0.19410350    -1.24540
O2949       O  0.82071165  0.23795210  0.80676310    -0.86790
O2950       O  0.75997746  0.16882866  0.81576712    -0.83840
C2951       C  0.75075003  0.15566566  0.79771927     0.96670
O2952       O  0.76896384  0.14198596  0.78839871    -0.83870
O2953       O  0.83170296  0.13742192  0.77477081    -0.86510
C2954       C  0.85012867  0.16848035  0.76468592     1.01200
O2955       O  0.86699143  0.20074115  0.77354703    -0.79280
O2956       O  0.88204864  0.25703245  0.80133361    -0.79460
C2957       C  0.85288560  0.26154869  0.79914723     1.01150
O2958       O  0.86299234  0.23408656  0.84192992    -0.86790
O2959       O  0.80514854  0.16078783  0.84816340    -0.83850
C2960       C  0.78416286  0.12489957  0.84554765     0.96690
O2961       O  0.77335392  0.11089971  0.82774270    -0.83880
O2962       O  0.84055757  0.11522178  0.81523493    -0.86480
C2963       C  0.87583203  0.13009151  0.81062486     1.01160
O2964       O  0.89348961  0.16229870  0.80128049    -0.79300
O2965       O  0.90271731  0.21528462  0.83031844    -0.79450
C2966       C  0.89246912  0.23030221  0.84410247     1.01130
Cr2967     Cr  0.81370905  0.19893173  0.82702818     1.93740
Cr2968     Cr  0.80559752  0.12992562  0.80211925     1.93210
Cr2969     Cr  0.88281057  0.20684121  0.80221829     1.39100
O2970       O  0.83415621  0.17857816  0.81047215    -1.24540
O2971       O  0.82481585  0.24926741  0.06926678    -0.86790
O2972       O  0.85835835  0.23894109  0.03650154    -0.83840
C2973       C  0.88229997  0.23115176  0.02838996     0.96670
O2974       O  0.87749833  0.19730415  0.02982360    -0.83870
O2975       O  0.90488633  0.19272684  0.06687401    -0.86510
C2976       C  0.91125359  0.19985633  0.08577810     1.01200
O2977       O  0.88338895  0.18993688  0.09822858    -0.79280
O2978       O  0.85629618  0.24013153  0.09434771    -0.79460
C2979       C  0.84907979  0.26233254  0.08383559     1.01150
O2980       O  0.75799297  0.17089617  0.06347509    -0.86790
O2981       O  0.78727772  0.16210868  0.02869340    -0.83850
C2982       C  0.78354238  0.12859032  0.02852768     0.96690
O2983       O  0.80725511  0.12214810  0.03803437    -0.83880
O2984       O  0.83775131  0.11478701  0.07322516    -0.86480
C2985       C  0.81261305  0.10282007  0.08741371     1.01160
O2986       O  0.80373270  0.12554775  0.09616565    -0.79300
O2987       O  0.77625750  0.17579046  0.09566156    -0.79450
C2988       C  0.74976209  0.16450641  0.08222704     1.01130
Cr2989     Cr  0.80917737  0.20333366  0.05078601     1.93740
Cr2990     Cr  0.85473594  0.15885512  0.05312110     1.93210
Cr2991     Cr  0.82999117  0.18278723  0.09354368     1.39100
O2992       O  0.83121604  0.18157722  0.06584820    -1.24540
loop_ 
_geom_bond_atom_site_label_1 
_geom_bond_atom_site_label_2 
_geom_bond_distance 
_geom_bond_site_symmetry_2 
_ccdc_geom_bond_type 
O1          Cr19   2.017       .  S
O1            C9   1.267       .  A
O2          Cr19   1.977       .  S
O2            C3   1.255       .  A
C3            O4   1.268       .  A
C3         C1879   1.485       .  S
O4          Cr20   2.021       .  S
O5          Cr20   1.980       .  S
O5            C6   1.259       .  A
C6            O7   1.269       .  A
C6         C2822   1.486       .  S
O7          Cr21   2.028       .  S
O8          Cr21   1.980       .  S
O8            C9   1.259       .  A
C9         C1549   1.480       .  S
O10         Cr19   1.965       .  S
O10          C18   1.255       .  A
O11         Cr19   2.027       .  S
O11          C12   1.270       .  A
C12          O13   1.258       .  A
C12        C1932   1.488       .  S
O13         Cr20   1.979       .  S
O14         Cr20   2.019       .  S
O14          C15   1.268       .  A
C15          O16   1.260       .  A
C15        C2800   1.480       .  S
O16         Cr21   1.982       .  S
O17         Cr21   2.026       .  S
O17          C18   1.269       .  A
C18        C2900   1.478       .  S
Cr19         O22   1.788       .  S
Cr20         O22   1.784       .  S
Cr21         O22   1.788       .  S
O23         Cr41   1.970       .  S
O23          C31   1.256       .  A
O24         Cr41   2.027       .  S
O24          C25   1.270       .  A
C25          O26   1.257       .  A
C25        C1885   1.485       .  S
O26         Cr42   1.972       .  S
O27         Cr42   2.022       .  S
O27          C28   1.269       .  A
C28          O29   1.258       .  A
C28        C2360   1.480       .  S
O29         Cr43   1.978       .  S
O30         Cr43   2.030       .  S
O30          C31   1.270       .  A
C31        C1571   1.483       .  S
O32         Cr41   2.018       .  S
O32          C40   1.268       .  A
O33         Cr41   1.984       .  S
O33          C34   1.257       .  A
C34          O35   1.269       .  A
C34        C1832   1.492       .  S
O35         Cr42   2.025       .  S
O36         Cr42   1.972       .  S
O36          C37   1.257       .  A
C37          O38   1.270       .  A
C37        C2382   1.482       .  S
O38         Cr43   2.029       .  S
O39         Cr43   1.979       .  S
O39          C40   1.259       .  A
C40        C1470   1.480       .  S
Cr41         O44   1.786       .  S
Cr42         O44   1.786       .  S
Cr43         O44   1.789       .  S
O45         Cr63   1.969       .  S
O45          C53   1.255       .  A
O46         Cr63   2.027       .  S
O46          C47   1.270       .  A
C47          O48   1.258       .  A
C47        C2875   1.489       .  S
O48         Cr64   1.979       .  S
O49         Cr64   2.018       .  S
O49          C50   1.267       .  A
C50          O51   1.260       .  A
C50        C2272   1.480       .  S
O51         Cr65   1.983       .  S
O52         Cr65   2.026       .  S
O52          C53   1.269       .  A
C53        C1527   1.480       .  S
O54         Cr63   2.017       .  S
O54          C62   1.267       .  A
O55         Cr63   1.981       .  S
O55          C56   1.256       .  A
C56          O57   1.268       .  A
C56        C1857   1.488       .  S
O57         Cr64   2.021       .  S
O58         Cr64   1.979       .  S
O58          C59   1.259       .  A
C59          O60   1.269       .  A
C59        C2228   1.486       .  S
O60         Cr65   2.027       .  S
O61         Cr65   1.981       .  S
O61          C62   1.260       .  A
C62        C1514   1.481       .  S
Cr63         O66   1.790       .  S
Cr64         O66   1.787       .  S
Cr65         O66   1.792       .  S
O67         Cr85   2.026       .  S
O67          C75   1.270       .  A
O68         Cr85   1.970       .  S
O68          C69   1.256       .  A
C69          O70   1.269       .  A
C69        C1448   1.482       .  S
O70         Cr86   2.028       .  S
O71         Cr86   1.979       .  S
O71          C72   1.259       .  A
C72          O73   1.268       .  A
C72        C2316   1.480       .  S
O73         Cr87   2.021       .  S
O74         Cr87   1.972       .  S
O74          C75   1.257       .  A
C75        C1907   1.484       .  S
O76         Cr85   1.983       .  S
O76          C84   1.256       .  A
O77         Cr85   2.016       .  S
O77          C78   1.267       .  A
C78          O79   1.259       .  A
C78        C1769   1.479       .  S
O79         Cr86   1.980       .  S
O80         Cr86   2.028       .  S
O80          C81   1.269       .  A
C81          O82   1.257       .  A
C81        C2338   1.481       .  S
O82         Cr87   1.972       .  S
O83         Cr87   2.024       .  S
O83          C84   1.269       .  A
C84        C2435   1.490       .  S
Cr85         O88   1.786       .  S
Cr86         O88   1.789       .  S
Cr87         O88   1.785       .  S
O89        Cr107   1.973       .  S
O89          C97   1.257       .  A
O90        Cr107   2.030       .  S
O90          C91   1.271       .  A
C91          O92   1.257       .  A
C91        C2429   1.488       .  S
O92        Cr108   1.975       .  S
O93        Cr108   2.020       .  S
O93          C94   1.268       .  A
C94          O95   1.258       .  A
C94        C2690   1.478       .  S
O95        Cr109   1.977       .  S
O96        Cr109   2.027       .  S
O96          C97   1.269       .  A
C97        C1681   1.484       .  S
O98        Cr107   2.019       .  S
O98         C106   1.268       .  A
O99        Cr107   1.987       .  S
O99         C100   1.257       .  A
C100        O101   1.268       .  A
C100       C1844   1.493       .  S
O101       Cr108   2.024       .  S
O102       Cr108   1.973       .  S
O102        C103   1.257       .  A
C103        O104   1.269       .  A
C103       C2844   1.482       .  S
O104       Cr109   2.026       .  S
O105       Cr109   1.980       .  S
O105        C106   1.259       .  A
C106       C1587   1.481       .  S
Cr107       O110   1.786       .  S
Cr108       O110   1.788       .  S
Cr109       O110   1.791       .  S
O111       Cr129   2.015       .  S
O111        C119   1.267       .  A
O112       Cr129   1.980       .  S
O112        C113   1.256       .  A
C113        O114   1.268       .  A
C113       C1976   1.487       .  S
O114       Cr130   2.022       .  S
O115       Cr130   1.972       .  S
O115        C116   1.257       .  A
C116        O117   1.269       .  A
C116       C2756   1.481       .  S
O117       Cr131   2.028       .  S
O118       Cr131   1.979       .  S
O118        C119   1.259       .  A
C119       C1703   1.478       .  S
O120       Cr129   1.970       .  S
O120        C128   1.256       .  A
O121       Cr129   2.025       .  S
O121        C122   1.269       .  A
C122        O123   1.257       .  A
C122       C1860   1.482       .  S
O123       Cr130   1.971       .  S
O124       Cr130   2.020       .  S
O124        C125   1.268       .  A
C125        O126   1.259       .  A
C125       C2778   1.478       .  S
O126       Cr131   1.979       .  S
O127       Cr131   2.029       .  S
O127        C128   1.270       .  A
C128       C1492   1.482       .  S
Cr129       O132   1.786       .  S
Cr130       O132   1.785       .  S
Cr131       O132   1.787       .  S
O133       Cr151   2.013       .  S
O133        C141   1.266       .  A
O134       Cr151   1.985       .  S
O134        C135   1.256       .  A
C135        O136   1.268       .  A
C135       C1813   1.491       .  S
O136       Cr152   2.021       .  S
O137       Cr152   1.980       .  S
O137        C138   1.258       .  A
C138        O139   1.268       .  A
C138       C2184   1.486       .  S
O139       Cr153   2.024       .  S
O140       Cr153   1.980       .  S
O140        C141   1.259       .  A
C141       C1747   1.478       .  S
O142       Cr151   1.969       .  S
O142        C150   1.255       .  A
O143       Cr151   2.025       .  S
O143        C144   1.268       .  A
C144        O145   1.258       .  A
C144       C1920   1.489       .  S
O145       Cr152   1.978       .  S
O146       Cr152   2.020       .  S
O146        C147   1.268       .  A
C147        O148   1.260       .  A
C147       C2404   1.484       .  S
O148       Cr153   1.983       .  S
O149       Cr153   2.021       .  S
O149        C150   1.267       .  A
C150       C1389   1.479       .  S
Cr151       O154   1.796       .  S
Cr152       O154   1.792       .  S
Cr153       O154   1.798       .  S
O155       Cr173   2.017       .  S
O155        C163   1.267       .  A
O156       Cr173   1.978       .  S
O156        C157   1.255       .  A
C157        O158   1.268       .  A
C157       C1989   1.486       .  S
O158       Cr174   2.021       .  S
O159       Cr174   1.979       .  S
O159        C160   1.259       .  A
C160        O161   1.269       .  A
C160       C2206   1.486       .  S
O161       Cr175   2.028       .  S
O162       Cr175   1.981       .  S
O162        C163   1.259       .  A
C163       C1417   1.481       .  S
O164       Cr173   1.967       .  S
O164        C172   1.255       .  A
O165       Cr173   2.027       .  S
O165        C166   1.270       .  A
C166        O167   1.259       .  A
C166       C1948   1.488       .  S
O167       Cr174   1.979       .  S
O168       Cr174   2.018       .  S
O168        C169   1.268       .  A
C169        O170   1.260       .  A
C169       C2250   1.480       .  S
O170       Cr175   1.982       .  S
O171       Cr175   2.026       .  S
O171        C172   1.269       .  A
C172       C1653   1.479       .  S
Cr173       O176   1.789       .  S
Cr174       O176   1.785       .  S
Cr175       O176   1.789       .  S
O177       Cr195   1.975       .  S
O177        C185   1.256       .  A
O178       Cr195   2.019       .  S
O178        C179   1.267       .  A
C179        O180   1.256       .  A
C179       C1961   1.484       .  S
O180       Cr196   1.973       .  S
O181       Cr196   2.009       .  S
O181        C182   1.265       .  A
C182        O183   1.258       .  A
C182       C2294   1.476       .  S
O183       Cr197   1.978       .  S
O184       Cr197   2.018       .  S
O184        C185   1.266       .  A
C185       C1373   1.483       .  S
O186       Cr195   2.009       .  S
O186        C194   1.265       .  A
O187       Cr195   1.986       .  S
O187        C188   1.257       .  A
C188        O189   1.265       .  A
C188       C1791   1.489       .  S
O189       Cr196   2.014       .  S
O190       Cr196   1.972       .  S
O190        C191   1.256       .  A
C191        O192   1.266       .  A
C191       C2162   1.478       .  S
O192       Cr197   2.016       .  S
O193       Cr197   1.982       .  S
O193        C194   1.259       .  A
C194       C1719   1.480       .  S
Cr195       O198   1.799       .  S
Cr196       O198   1.802       .  S
Cr197       O198   1.806       .  S
O199       Cr217   1.970       .  S
O199        C207   1.256       .  A
O200       Cr217   2.025       .  S
O200        C201   1.269       .  A
C201        O202   1.257       .  A
C201       C1995   1.484       .  S
O202       Cr218   1.973       .  S
O203       Cr218   2.020       .  S
O203        C204   1.268       .  A
C204        O205   1.259       .  A
C204       C2633   1.477       .  S
O205       Cr219   1.977       .  S
O206       Cr219   2.028       .  S
O206        C207   1.269       .  A
C207       C1351   1.482       .  S
O208       Cr217   2.016       .  S
O208        C216   1.267       .  A
O209       Cr217   1.982       .  S
O209        C210   1.256       .  A
C210        O211   1.268       .  A
C210       C1794   1.489       .  S
O211       Cr218   2.023       .  S
O212       Cr218   1.974       .  S
O212        C213   1.258       .  A
C213        O214   1.269       .  A
C213       C2602   1.483       .  S
O214       Cr219   2.028       .  S
O215       Cr219   1.976       .  S
O215        C216   1.259       .  A
C216       C1279   1.477       .  S
Cr217       O220   1.786       .  S
Cr218       O220   1.784       .  S
Cr219       O220   1.788       .  S
O221       Cr239   1.967       .  S
O221        C229   1.255       .  A
O222       Cr239   2.028       .  S
O222        C223   1.270       .  A
C223        O224   1.258       .  A
C223       C1819   1.488       .  S
O224       Cr240   1.978       .  S
O225       Cr240   2.020       .  S
O225        C226   1.268       .  A
C226        O227   1.260       .  A
C226       C2668   1.480       .  S
O227       Cr241   1.981       .  S
O228       Cr241   2.027       .  S
O228        C229   1.269       .  A
C229       C1329   1.479       .  S
O230       Cr239   2.017       .  S
O230        C238   1.267       .  A
O231       Cr239   1.980       .  S
O231        C232   1.256       .  A
C232        O233   1.268       .  A
C232       C1895   1.487       .  S
O233       Cr240   2.022       .  S
O234       Cr240   1.979       .  S
O234        C235   1.259       .  A
C235        O236   1.269       .  A
C235       C2712   1.486       .  S
O236       Cr241   2.029       .  S
O237       Cr241   1.979       .  S
O237        C238   1.259       .  A
C238       C1316   1.480       .  S
Cr239       O242   1.788       .  S
Cr240       O242   1.785       .  S
Cr241       O242   1.789       .  S
O243       Cr261   1.945       .  S
O243        C251   1.258       .  A
O244       Cr261   1.991       .  S
O244        C245   1.255       .  A
C245        O246   1.258       .  A
C245        C531   1.458       .  S
O246       Cr262   1.973       .  S
O247       Cr262   2.023       .  S
O247        C248   1.268       .  A
C248        O249   1.264       .  A
C248        C380   1.497       .  S
O249       Cr263   2.001       .  S
O250       Cr263   2.034       .  S
O250        C251   1.272       .  A
C251        C515   1.464       .  S
O252       Cr261   1.982       .  S
O252        C260   1.255       .  A
O253       Cr261   1.952       .  S
O253        C254   1.260       .  A
C254        O255   1.272       .  A
C254        C955   1.472       .  S
O255       Cr262   2.040       .  S
O256       Cr262   1.976       .  S
O256        C257   1.262       .  A
C257        O258   1.272       .  A
C257        C270   1.491       .  S
O258       Cr263   2.036       .  S
O259       Cr263   1.996       .  S
O259        C260   1.262       .  A
C260        C883   1.464       .  S
Cr261       O264   1.778       .  S
Cr262       O264   1.781       .  S
Cr263       O264   1.790       .  S
O265       Cr283   1.997       .  S
O265        C273   1.258       .  A
O266       Cr283   1.963       .  S
O266        C267   1.260       .  A
C267        O268   1.269       .  A
C267        C949   1.464       .  S
O268       Cr284   2.022       .  S
O269       Cr284   1.976       .  S
O269        C270   1.261       .  A
C270        O271   1.271       .  A
O271       Cr285   2.035       .  S
O272       Cr285   1.979       .  S
O272        C273   1.260       .  A
C273        C889   1.465       .  S
O274       Cr283   1.947       .  S
O274        C282   1.257       .  A
O275       Cr283   1.993       .  S
O275        C276   1.257       .  A
C276        O277   1.258       .  A
C276        C581   1.458       .  S
O277       Cr284   1.971       .  S
O278       Cr284   2.022       .  S
O278        C279   1.267       .  A
C279        O280   1.263       .  A
C279        C314   1.495       .  S
O280       Cr285   1.998       .  S
O281       Cr285   2.035       .  S
O281        C282   1.271       .  A
C282        C553   1.467       .  S
Cr283       O286   1.787       .  S
Cr284       O286   1.778       .  S
Cr285       O286   1.787       .  S
O287       Cr305   2.024       .  S
O287        C295   1.270       .  A
O288       Cr305   1.972       .  S
O288        C289   1.258       .  A
C289        O290   1.259       .  A
C289        C804   1.462       .  S
O290       Cr306   1.999       .  S
O291       Cr306   1.960       .  S
O291        C292   1.260       .  A
C292        O293   1.271       .  A
C292        C832   1.463       .  S
O293       Cr307   2.023       .  S
O294       Cr307   1.983       .  S
O294        C295   1.261       .  A
C295        C323   1.487       .  S
O296       Cr305   1.986       .  S
O296        C304   1.261       .  A
O297       Cr305   2.028       .  S
O297        C298   1.269       .  A
C298        O299   1.258       .  A
C298        C641   1.466       .  S
O299       Cr306   1.951       .  S
O300       Cr306   1.989       .  S
O300        C301   1.256       .  A
C301        O302   1.260       .  A
C301        C691   1.458       .  S
O302       Cr307   1.976       .  S
O303       Cr307   2.030       .  S
O303        C304   1.269       .  A
C304        C414   1.494       .  S
Cr305       O308   1.781       .  S
Cr306       O308   1.786       .  S
Cr307       O308   1.782       .  S
O309       Cr327   1.986       .  S
O309        C317   1.254       .  A
O310       Cr327   1.953       .  S
O310        C311   1.259       .  A
C311        O312   1.270       .  A
C311        C575   1.467       .  S
O312       Cr328   2.030       .  S
O313       Cr328   1.997       .  S
O313        C314   1.263       .  A
C314        O315   1.268       .  A
O315       Cr329   2.022       .  S
O316       Cr329   1.973       .  S
O316        C317   1.257       .  A
C317        C559   1.455       .  S
O318       Cr327   1.956       .  S
O318        C326   1.260       .  A
O319       Cr327   1.981       .  S
O319        C320   1.255       .  A
C320        O321   1.260       .  A
C320        C826   1.459       .  S
O321       Cr328   1.990       .  S
O322       Cr328   2.023       .  S
O322        C323   1.271       .  A
C323        O324   1.263       .  A
O324       Cr329   1.987       .  S
O325       Cr329   2.042       .  S
O325        C326   1.272       .  A
C326        C810   1.475       .  S
Cr327       O330   1.780       .  S
Cr328       O330   1.788       .  S
Cr329       O330   1.785       .  S
O331       Cr349   1.953       .  S
O331        C339   1.259       .  A
O332       Cr349   1.982       .  S
O332        C333   1.255       .  A
C333        O334   1.262       .  A
C333       C2907   1.463       .  S
O334       Cr350   1.995       .  S
O335       Cr350   2.037       .  S
O335        C336   1.273       .  A
C336        O337   1.262       .  A
C336        C358   1.491       .  S
O337       Cr351   1.975       .  S
O338       Cr351   2.039       .  S
O338        C339   1.271       .  A
C339        C911   1.472       .  S
O340       Cr349   1.991       .  S
O340        C348   1.255       .  A
O341       Cr349   1.947       .  S
O341        C342   1.259       .  A
C342        O343   1.273       .  A
C342        C603   1.466       .  S
O343       Cr350   2.036       .  S
O344       Cr350   2.001       .  S
O344        C345   1.264       .  A
C345        O346   1.268       .  A
C345        C468   1.497       .  S
O346       Cr351   2.022       .  S
O347       Cr351   1.972       .  S
O347        C348   1.258       .  A
C348        C619   1.456       .  S
Cr349       O352   1.779       .  S
Cr350       O352   1.789       .  S
Cr351       O352   1.782       .  S
O353       Cr371   1.995       .  S
O353        C361   1.258       .  A
O354       Cr371   1.965       .  S
O354        C355   1.260       .  A
C355        O356   1.269       .  A
C355        C905   1.464       .  S
O356       Cr372   2.020       .  S
O357       Cr372   1.974       .  S
O357        C358   1.261       .  A
C358        O359   1.272       .  A
O359       Cr373   2.036       .  S
O360       Cr373   1.978       .  S
O360        C361   1.260       .  A
C361       C2913   1.464       .  S
O362       Cr371   1.950       .  S
O362        C370   1.258       .  A
O363       Cr371   1.991       .  S
O363        C364   1.256       .  A
C364        O365   1.258       .  A
C364        C713   1.456       .  S
O365       Cr372   1.970       .  S
O366       Cr372   2.020       .  S
O366        C367   1.267       .  A
C367        O368   1.263       .  A
C367        C424   1.494       .  S
O368       Cr373   1.999       .  S
O369       Cr373   2.036       .  S
O369        C370   1.272       .  A
C370        C663   1.469       .  S
Cr371       O374   1.788       .  S
Cr372       O374   1.778       .  S
Cr373       O374   1.787       .  S
O375       Cr393   1.954       .  S
O375        C383   1.259       .  A
O376       Cr393   1.985       .  S
O376        C377   1.254       .  A
C377        O378   1.257       .  A
C377        C509   1.455       .  S
O378       Cr394   1.974       .  S
O379       Cr394   2.025       .  S
O379        C380   1.269       .  A
C380        O381   1.264       .  A
O381       Cr395   1.999       .  S
O382       Cr395   2.030       .  S
O382        C383   1.270       .  A
C383        C537   1.467       .  S
O384       Cr393   1.979       .  S
O384        C392   1.255       .  A
O385       Cr393   1.957       .  S
O385        C386   1.260       .  A
C386        O387   1.273       .  A
C386       C2935   1.477       .  S
O387       Cr394   2.044       .  S
O388       Cr394   1.988       .  S
O388        C389   1.264       .  A
C389        O390   1.271       .  A
C389        C405   1.488       .  S
O390       Cr395   2.023       .  S
O391       Cr395   1.989       .  S
O391        C392   1.260       .  A
C392        C942   1.457       .  S
Cr393       O396   1.781       .  S
Cr394       O396   1.785       .  S
Cr395       O396   1.788       .  S
O397       Cr415   1.992       .  S
O397        C405   1.262       .  A
O398       Cr415   2.017       .  S
O398        C399   1.269       .  A
C399        O400   1.261       .  A
C399        C936   1.463       .  S
O400       Cr416   1.965       .  S
O401       Cr416   1.990       .  S
O401        C402   1.256       .  A
C402        O403   1.258       .  A
C402       C2929   1.461       .  S
O403       Cr417   1.978       .  S
O404       Cr417   2.015       .  S
O404        C405   1.267       .  A
O406       Cr415   2.032       .  S
O406        C414   1.269       .  A
O407       Cr415   1.987       .  S
O407        C408   1.261       .  A
C408        O409   1.254       .  A
C408        C685   1.454       .  S
O409       Cr416   1.976       .  S
O410       Cr416   1.962       .  S
O410        C411   1.259       .  A
C411        O412   1.267       .  A
C411        C647   1.460       .  S
O412       Cr417   2.013       .  S
O413       Cr417   1.984       .  S
O413        C414   1.260       .  A
Cr415       O418   1.790       .  S
Cr416       O418   1.792       .  S
Cr417       O418   1.783       .  S
O419       Cr437   1.987       .  S
O419        C427   1.254       .  A
O420       Cr437   1.951       .  S
O420        C421   1.259       .  A
C421        O422   1.270       .  A
C421        C707   1.465       .  S
O422       Cr438   2.029       .  S
O423       Cr438   1.998       .  S
O423        C424   1.263       .  A
C424        O425   1.268       .  A
O425       Cr439   2.020       .  S
O426       Cr439   1.974       .  S
O426        C427   1.257       .  A
C427        C669   1.455       .  S
O428       Cr437   1.951       .  S
O428        C436   1.259       .  A
O429       Cr437   1.982       .  S
O429        C430   1.255       .  A
C430        O431   1.261       .  A
C430        C870   1.461       .  S
O431       Cr438   1.991       .  S
O432       Cr438   2.023       .  S
O432        C433   1.271       .  A
C433        O434   1.263       .  A
C433        C449   1.486       .  S
O434       Cr439   1.985       .  S
O435       Cr439   2.041       .  S
O435        C436   1.272       .  A
C436        C854   1.471       .  S
Cr437       O440   1.778       .  S
Cr438       O440   1.786       .  S
Cr439       O440   1.786       .  S
O441       Cr459   2.019       .  S
O441        C449   1.268       .  A
O442       Cr459   1.975       .  S
O442        C443   1.260       .  A
C443        O444   1.258       .  A
C443        C848   1.463       .  S
O444       Cr460   1.997       .  S
O445       Cr460   1.965       .  S
O445        C446   1.260       .  A
C446        O447   1.269       .  A
C446        C876   1.465       .  S
O447       Cr461   2.020       .  S
O448       Cr461   1.985       .  S
O448        C449   1.260       .  A
O450       Cr459   1.985       .  S
O450        C458   1.260       .  A
O451       Cr459   2.011       .  S
O451        C452   1.266       .  A
C452        O453   1.259       .  A
C452        C729   1.460       .  S
O453       Cr460   1.965       .  S
O454       Cr460   1.991       .  S
O454        C455   1.257       .  A
C455        O456   1.259       .  A
C455       C2957   1.457       .  S
O456       Cr461   1.972       .  S
O457       Cr461   2.030       .  S
O457        C458   1.269       .  A
C458        C502   1.494       .  S
Cr459       O462   1.780       .  S
Cr460       O462   1.793       .  S
Cr461       O462   1.786       .  S
O463       Cr481   1.952       .  S
O463        C471   1.259       .  A
O464       Cr481   1.986       .  S
O464        C465   1.254       .  A
C465        O466   1.257       .  A
C465        C597   1.456       .  S
O466       Cr482   1.975       .  S
O467       Cr482   2.022       .  S
O467        C468   1.268       .  A
C468        O469   1.264       .  A
O469       Cr483   2.000       .  S
O470       Cr483   2.033       .  S
O470        C471   1.271       .  A
C471        C625   1.468       .  S
O472       Cr481   1.982       .  S
O472        C480   1.255       .  A
O473       Cr481   1.951       .  S
O473        C474   1.259       .  A
C474        O475   1.272       .  A
C474        C782   1.472       .  S
O475       Cr482   2.041       .  S
O476       Cr482   1.988       .  S
O476        C477   1.263       .  A
C477        O478   1.272       .  A
C477        C493   1.490       .  S
O478       Cr483   2.027       .  S
O479       Cr483   1.993       .  S
O479        C480   1.261       .  A
C480        C751   1.461       .  S
Cr481       O484   1.779       .  S
Cr482       O484   1.787       .  S
Cr483       O484   1.786       .  S
O485       Cr503   1.987       .  S
O485        C493   1.261       .  A
O486       Cr503   2.021       .  S
O486        C487   1.270       .  A
C487        O488   1.261       .  A
C487        C757   1.462       .  S
O488       Cr504   1.961       .  S
O489       Cr504   1.997       .  S
O489        C490   1.257       .  A
C490        O491   1.257       .  A
C490        C788   1.463       .  S
O491       Cr505   1.974       .  S
O492       Cr505   2.025       .  S
O492        C493   1.271       .  A
O494       Cr503   2.031       .  S
O494        C502   1.269       .  A
O495       Cr503   1.986       .  S
O495        C496   1.260       .  A
C496        O497   1.254       .  A
C496       C2951   1.452       .  S
O497       Cr504   1.977       .  S
O498       Cr504   1.954       .  S
O498        C499   1.258       .  A
C499        O500   1.271       .  A
C499        C735   1.470       .  S
O500       Cr505   2.034       .  S
O501       Cr505   1.986       .  S
O501        C502   1.261       .  A
Cr503       O506   1.787       .  S
Cr504       O506   1.787       .  S
Cr505       O506   1.781       .  S
O507       Cr525   2.019       .  S
O507        C515   1.268       .  A
O508       Cr525   1.945       .  S
O508        C509   1.251       .  A
C509        O510   1.269       .  A
O510       Cr526   2.014       .  S
O511       Cr526   1.963       .  S
O511        C512   1.256       .  A
C512        O513   1.260       .  A
C512        C534   1.445       .  S
O513       Cr527   1.991       .  S
O514       Cr527   1.950       .  S
O514        C515   1.257       .  A
O516       Cr525   1.949       .  S
O516        C524   1.253       .  A
O517       Cr525   2.009       .  S
O517        C518   1.267       .  A
C518        O519   1.254       .  A
C518       C2658   1.456       .  S
O519       Cr526   1.956       .  S
O520       Cr526   2.020       .  S
O520        C521   1.269       .  A
C521        O522   1.258       .  A
C521       C2457   1.458       .  S
O522       Cr527   1.950       .  S
O523       Cr527   2.006       .  S
O523        C524   1.261       .  A
C524       C2627   1.456       .  S
Cr525       O528   1.772       .  S
Cr526       O528   1.775       .  S
Cr527       O528   1.769       .  S
O529       Cr547   2.024       .  S
O529        C537   1.270       .  A
O530       Cr547   1.944       .  S
O530        C531   1.251       .  A
C531        O532   1.269       .  A
O532       Cr548   2.019       .  S
O533       Cr548   1.960       .  S
O533        C534   1.255       .  A
C534        O535   1.260       .  A
O535       Cr549   1.992       .  S
O536       Cr549   1.953       .  S
O536        C537   1.256       .  A
O538       Cr547   1.946       .  S
O538        C546   1.252       .  A
O539       Cr547   2.014       .  S
O539        C540   1.268       .  A
C540        O541   1.254       .  A
C540       C2724   1.459       .  S
O541       Cr548   1.956       .  S
O542       Cr548   2.025       .  S
O542        C543   1.271       .  A
C543        O544   1.258       .  A
C543       C2476   1.462       .  S
O544       Cr549   1.952       .  S
O545       Cr549   2.006       .  S
O545        C546   1.261       .  A
C546       C2696   1.454       .  S
Cr547       O550   1.770       .  S
Cr548       O550   1.775       .  S
Cr549       O550   1.771       .  S
O551       Cr569   1.945       .  S
O551        C559   1.251       .  A
O552       Cr569   2.021       .  S
O552        C553   1.268       .  A
C553        O554   1.257       .  A
O554       Cr570   1.953       .  S
O555       Cr570   1.990       .  S
O555        C556   1.260       .  A
C556        O557   1.256       .  A
C556        C578   1.444       .  S
O557       Cr571   1.961       .  S
O558       Cr571   2.016       .  S
O558        C559   1.269       .  A
O560       Cr569   2.010       .  S
O560        C568   1.267       .  A
O561       Cr569   1.948       .  S
O561        C562   1.253       .  A
C562        O563   1.262       .  A
C562       C2790   1.455       .  S
O563       Cr570   2.006       .  S
O564       Cr570   1.954       .  S
O564        C565   1.259       .  A
C565        O566   1.269       .  A
C565       C2564   1.462       .  S
O566       Cr571   2.022       .  S
O567       Cr571   1.957       .  S
O567        C568   1.255       .  A
C568       C2740   1.457       .  S
Cr569       O572   1.773       .  S
Cr570       O572   1.770       .  S
Cr571       O572   1.775       .  S
O573       Cr591   1.946       .  S
O573        C581   1.252       .  A
O574       Cr591   2.024       .  S
O574        C575   1.269       .  A
C575        O576   1.256       .  A
O576       Cr592   1.952       .  S
O577       Cr592   1.991       .  S
O577        C578   1.260       .  A
C578        O579   1.254       .  A
O579       Cr593   1.958       .  S
O580       Cr593   2.018       .  S
O580        C581   1.269       .  A
O582       Cr591   2.014       .  S
O582        C590   1.268       .  A
O583       Cr591   1.948       .  S
O583        C584   1.253       .  A
C584        O585   1.261       .  A
C584       C2856   1.455       .  S
O585       Cr592   2.005       .  S
O586       Cr592   1.950       .  S
O586        C587   1.257       .  A
C587        O588   1.270       .  A
C587       C2523   1.460       .  S
O588       Cr593   2.023       .  S
O589       Cr593   1.957       .  S
O589        C590   1.254       .  A
C590       C2828   1.459       .  S
Cr591       O594   1.770       .  S
Cr592       O594   1.772       .  S
Cr593       O594   1.775       .  S
O595       Cr613   2.017       .  S
O595        C603   1.267       .  A
O596       Cr613   1.951       .  S
O596        C597   1.251       .  A
C597        O598   1.266       .  A
O598       Cr614   2.009       .  S
O599       Cr614   1.961       .  S
O599        C600   1.256       .  A
C600        O601   1.259       .  A
C600        C622   1.443       .  S
O601       Cr615   1.989       .  S
O602       Cr615   1.955       .  S
O602        C603   1.257       .  A
O604       Cr613   1.949       .  S
O604        C612   1.253       .  A
O605       Cr613   2.010       .  S
O605        C606   1.268       .  A
C606        O607   1.253       .  A
C606       C2416   1.454       .  S
O607       Cr614   1.950       .  S
O608       Cr614   2.005       .  S
O608        C609   1.267       .  A
C609        O610   1.260       .  A
C609       C2118   1.452       .  S
O610       Cr615   1.962       .  S
O611       Cr615   2.009       .  S
O611        C612   1.262       .  A
C612       C2366   1.457       .  S
Cr613       O616   1.774       .  S
Cr614       O616   1.775       .  S
Cr615       O616   1.775       .  S
O617       Cr635   2.024       .  S
O617        C625   1.269       .  A
O618       Cr635   1.944       .  S
O618        C619   1.251       .  A
C619        O620   1.269       .  A
O620       Cr636   2.017       .  S
O621       Cr636   1.958       .  S
O621        C622   1.255       .  A
C622        O623   1.260       .  A
O623       Cr637   1.990       .  S
O624       Cr637   1.954       .  S
O624        C625   1.256       .  A
O626       Cr635   1.945       .  S
O626        C634   1.252       .  A
O627       Cr635   2.015       .  S
O627        C628   1.269       .  A
C628        O629   1.254       .  A
C628       C2240   1.459       .  S
O629       Cr636   1.956       .  S
O630       Cr636   2.024       .  S
O630        C631   1.270       .  A
C631        O632   1.259       .  A
C631       C2014   1.462       .  S
O632       Cr637   1.953       .  S
O633       Cr637   2.005       .  S
O633        C634   1.261       .  A
C634       C2300   1.453       .  S
Cr635       O638   1.771       .  S
Cr636       O638   1.775       .  S
Cr637       O638   1.771       .  S
O639       Cr657   1.965       .  S
O639        C647   1.256       .  A
O640       Cr657   2.024       .  S
O640        C641   1.269       .  A
C641        O642   1.256       .  A
O642       Cr658   1.950       .  S
O643       Cr658   1.994       .  S
O643        C644   1.261       .  A
C644        O645   1.252       .  A
C644        C688   1.444       .  S
O645       Cr659   1.952       .  S
O646       Cr659   2.005       .  S
O646        C647   1.266       .  A
O648       Cr657   2.009       .  S
O648        C656   1.267       .  A
O649       Cr657   1.960       .  S
O649        C650   1.256       .  A
C650        O651   1.261       .  A
C650       C2614   1.462       .  S
O651       Cr658   2.004       .  S
O652       Cr658   1.954       .  S
O652        C653   1.257       .  A
C653        O654   1.267       .  A
C653       C2580   1.459       .  S
O654       Cr659   2.015       .  S
O655       Cr659   1.959       .  S
O655        C656   1.255       .  A
C656       C2762   1.458       .  S
Cr657       O660   1.775       .  S
Cr658       O660   1.775       .  S
Cr659       O660   1.778       .  S
O661       Cr679   1.950       .  S
O661        C669   1.251       .  A
O662       Cr679   2.021       .  S
O662        C663   1.268       .  A
C663        O664   1.258       .  A
O664       Cr680   1.957       .  S
O665       Cr680   1.989       .  S
O665        C666   1.259       .  A
C666        O667   1.256       .  A
C666        C710   1.443       .  S
O667       Cr681   1.961       .  S
O668       Cr681   2.009       .  S
O668        C669   1.266       .  A
O670       Cr679   2.013       .  S
O670        C678   1.268       .  A
O671       Cr679   1.948       .  S
O671        C672   1.253       .  A
C672        O673   1.262       .  A
C672       C2328   1.455       .  S
O673       Cr680   2.007       .  S
O674       Cr680   1.964       .  S
O674        C675   1.260       .  A
C675        O676   1.267       .  A
C675       C2093   1.453       .  S
O676       Cr681   2.005       .  S
O677       Cr681   1.952       .  S
O677        C678   1.253       .  A
C678       C2190   1.457       .  S
Cr679       O682   1.774       .  S
Cr680       O682   1.775       .  S
Cr681       O682   1.775       .  S
O683       Cr701   1.946       .  S
O683        C691   1.252       .  A
O684       Cr701   2.000       .  S
O684        C685   1.263       .  A
C685        O686   1.258       .  A
O686       Cr702   1.962       .  S
O687       Cr702   1.989       .  S
O687        C688   1.260       .  A
C688        O689   1.255       .  A
O689       Cr703   1.959       .  S
O690       Cr703   2.019       .  S
O690        C691   1.270       .  A
O692       Cr701   1.999       .  S
O692        C700   1.263       .  A
O693       Cr701   1.953       .  S
O693        C694   1.256       .  A
C694        O695   1.261       .  A
C694       C2812   1.454       .  S
O695       Cr702   2.002       .  S
O696       Cr702   1.958       .  S
O696        C697   1.259       .  A
C697        O698   1.269       .  A
C697       C2545   1.463       .  S
O698       Cr703   2.020       .  S
O699       Cr703   1.959       .  S
O699        C700   1.254       .  A
C700       C2674   1.452       .  S
Cr701       O704   1.774       .  S
Cr702       O704   1.772       .  S
Cr703       O704   1.776       .  S
O705       Cr723   1.944       .  S
O705        C713   1.251       .  A
O706       Cr723   2.023       .  S
O706        C707   1.269       .  A
C707        O708   1.256       .  A
O708       Cr724   1.950       .  S
O709       Cr724   1.990       .  S
O709        C710   1.260       .  A
C710        O711   1.255       .  A
O711       Cr725   1.959       .  S
O712       Cr725   2.016       .  S
O712        C713   1.269       .  A
O714       Cr723   2.015       .  S
O714        C722   1.269       .  A
O715       Cr723   1.945       .  S
O715        C716   1.253       .  A
C716        O717   1.261       .  A
C716       C2174   1.453       .  S
O717       Cr724   2.004       .  S
O718       Cr724   1.950       .  S
O718        C719   1.257       .  A
C719        O720   1.270       .  A
C719       C2039   1.459       .  S
O720       Cr725   2.022       .  S
O721       Cr725   1.958       .  S
O721        C722   1.254       .  A
C722       C2212   1.460       .  S
Cr723       O726   1.770       .  S
Cr724       O726   1.772       .  S
Cr725       O726   1.774       .  S
O727       Cr745   2.018       .  S
O727        C735   1.267       .  A
O728       Cr745   1.968       .  S
O728        C729   1.256       .  A
C729        O730   1.264       .  A
O730       Cr746   2.002       .  S
O731       Cr746   1.941       .  S
O731        C732   1.252       .  A
C732        O733   1.263       .  A
C732       C2954   1.448       .  S
O733       Cr747   2.004       .  S
O734       Cr747   1.964       .  S
O734        C735   1.258       .  A
O736       Cr745   1.954       .  S
O736        C744   1.256       .  A
O737       Cr745   2.010       .  S
O737        C738   1.268       .  A
C738        O739   1.252       .  A
C738       C2394   1.451       .  S
O739       Cr746   1.947       .  S
O740       Cr746   2.008       .  S
O740        C741   1.266       .  A
C741        O742   1.259       .  A
C741       C2137   1.462       .  S
O742       Cr747   1.970       .  S
O743       Cr747   2.012       .  S
O743        C744   1.264       .  A
C744       C2344   1.462       .  S
Cr745       O748   1.775       .  S
Cr746       O748   1.775       .  S
Cr747       O748   1.779       .  S
O749       Cr767   1.966       .  S
O749        C757   1.255       .  A
O750       Cr767   2.003       .  S
O750        C751   1.263       .  A
C751        O752   1.256       .  A
O752       Cr768   1.963   1_545  S
O753       Cr768   2.053       .  S
O753        C754   1.274       .  A
C754        O755   1.262       .  A
C754        C785   1.509       .  S
O755       Cr769   1.993       .  S
O756       Cr769   2.005   1_545  S
O756        C757   1.267       .  A
O758       Cr767   2.004       .  S
O758        C766   1.262       .  A
O759       Cr767   1.970       .  S
O759        C760   1.257       .  A
C760        O761   1.274       .  A
C760       C1376   1.490   1_545  S
O761       Cr768   2.045   1_545  S
O762       Cr768   1.959       .  S
O762        C763   1.256       .  A
C763        O764   1.266       .  A
C763        C974   1.467       .  S
O764       Cr769   2.014       .  S
O765       Cr769   1.995       .  S
O765        C766   1.262   1_565  A
C766       C1668   1.481   1_545  S
Cr767       O770   1.793       .  S
Cr768       O770   1.781   1_565  S
Cr769       O770   1.782   1_565  S
O771       Cr789   2.016       .  S
O771        C779   1.267       .  A
O772       Cr789   1.958       .  S
O772        C773   1.253       .  A
C773        O774   1.274   1_545  A
C773       C1404   1.485   1_545  S
O774       Cr790   2.045       .  S
O775       Cr790   1.954       .  S
O775        C776   1.256       .  A
C776        O777   1.268       .  A
C776       C1062   1.467       .  S
O777       Cr791   2.022       .  S
O778       Cr791   1.993       .  S
O778        C779   1.263   1_565  A
C779       C1772   1.485   1_545  S
O780       Cr789   1.955       .  S
O780        C788   1.253       .  A
O781       Cr789   2.022       .  S
O781        C782   1.267       .  A
C782        O783   1.254       .  A
O783       Cr790   1.953   1_545  S
O784       Cr790   2.046       .  S
O784        C785   1.273       .  A
C785        O786   1.265       .  A
O786       Cr791   2.000       .  S
O787       Cr791   2.014   1_545  S
O787        C788   1.268       .  A
Cr789       O792   1.787       .  S
Cr790       O792   1.777   1_565  S
Cr791       O792   1.779   1_565  S
O793       Cr811   1.954       .  S
O793        C801   1.252   1_455  A
O794       Cr811   2.020       .  S
O794        C795   1.268   1_455  A
C795        O796   1.262       .  A
C795       C1294   1.487       .  S
O796       Cr812   1.990       .  S
O797       Cr812   2.008       .  S
O797        C798   1.266       .  A
C798        O799   1.257       .  A
C798       C1128   1.462       .  S
O799       Cr813   1.964       .  S
O800       Cr813   2.048       .  S
O800        C801   1.275       .  A
C801       C1618   1.484       .  S
O802       Cr811   2.023       .  S
O802        C810   1.267       .  A
O803       Cr811   1.956       .  S
O803        C804   1.252       .  A
C804        O805   1.266       .  A
O805       Cr812   2.010   1_455  S
O806       Cr812   2.000       .  S
O806        C807   1.265       .  A
C807        O808   1.272       .  A
C807        C829   1.508       .  S
O808       Cr813   2.045       .  S
O809       Cr813   1.957   1_455  S
O809        C810   1.254       .  A
Cr811       O814   1.789   1_455  S
Cr812       O814   1.779       .  S
Cr813       O814   1.782       .  S
O815       Cr833   2.003       .  S
O815        C823   1.262   1_455  A
O816       Cr833   1.971       .  S
O816        C817   1.257   1_455  A
C817        O818   1.275       .  A
C817       C1602   1.491       .  S
O818       Cr834   2.045       .  S
O819       Cr834   1.957       .  S
O819        C820   1.255       .  A
C820        O821   1.266       .  A
C820       C1225   1.466       .  S
O821       Cr835   2.016       .  S
O822       Cr835   1.995       .  S
O822        C823   1.262       .  A
C823       C1332   1.480       .  S
O824       Cr833   1.966       .  S
O824        C832   1.255       .  A
O825       Cr833   2.002       .  S
O825        C826   1.263       .  A
C826        O827   1.256       .  A
O827       Cr834   1.960   1_455  S
O828       Cr834   2.053       .  S
O828        C829   1.274       .  A
C829        O830   1.262       .  A
O830       Cr835   1.993       .  S
O831       Cr835   2.006   1_455  S
O831        C832   1.267       .  A
Cr833       O836   1.792   1_455  S
Cr834       O836   1.780       .  S
Cr835       O836   1.781       .  S
O837       Cr855   1.956       .  S
O837        C845   1.252   1_655  A
O838       Cr855   2.018       .  S
O838        C839   1.267   1_655  A
C839        O840   1.263       .  A
C839       C1455   1.486       .  S
O840       Cr856   1.993       .  S
O841       Cr856   2.023       .  S
O841        C842   1.269       .  A
C842        O843   1.255       .  A
C842       C1084   1.466       .  S
O843       Cr857   1.952       .  S
O844       Cr857   2.046       .  S
O844        C845   1.275       .  A
C845       C1750   1.484       .  S
O846       Cr855   2.024       .  S
O846        C854   1.267       .  A
O847       Cr855   1.953       .  S
O847        C848   1.253       .  A
C848        O849   1.268       .  A
O849       Cr856   2.015   1_655  S
O850       Cr856   1.998       .  S
O850        C851   1.264       .  A
C851        O852   1.273       .  A
C851        C873   1.509       .  S
O852       Cr857   2.049       .  S
O853       Cr857   1.951   1_655  S
O853        C854   1.253       .  A
Cr855       O858   1.787   1_655  S
Cr856       O858   1.778       .  S
Cr857       O858   1.776       .  S
O859       Cr877   2.003       .  S
O859        C867   1.262   1_655  A
O860       Cr877   1.972       .  S
O860        C861   1.257   1_655  A
C861        O862   1.274       .  A
C861       C1734   1.490       .  S
O862       Cr878   2.043       .  S
O863       Cr878   1.961       .  S
O863        C864   1.256       .  A
C864        O865   1.265       .  A
C864       C1005   1.468       .  S
O865       Cr879   2.014       .  S
O866       Cr879   1.998       .  S
O866        C867   1.263       .  A
C867       C1530   1.482       .  S
O868       Cr877   1.969       .  S
O868        C876   1.256       .  A
O869       Cr877   2.002       .  S
O869        C870   1.262       .  A
C870        O871   1.256       .  A
O871       Cr878   1.963   1_655  S
O872       Cr878   2.051       .  S
O872        C873   1.274       .  A
C873        O874   1.263       .  A
O874       Cr879   1.995       .  S
O875       Cr879   2.006   1_655  S
O875        C876   1.267       .  A
Cr877       O880   1.793   1_655  S
Cr878       O880   1.782       .  S
Cr879       O880   1.782       .  S
O881       Cr899   1.958       .  S
O881        C889   1.254       .  A
O882       Cr899   2.007       .  S
O882        C883   1.264       .  A
C883        O884   1.257       .  A
O884       Cr900   1.963       .  S
O885       Cr900   2.051       .  S
O885        C886   1.273       .  A
C886        O887   1.265       .  A
C886        C952   1.511       .  S
O887       Cr901   2.001       .  S
O888       Cr901   2.015       .  S
O888        C889   1.269       .  A
O890       Cr899   2.011       .  S
O890        C898   1.264       .  A
O891       Cr899   1.965       .  S
O891        C892   1.255       .  A
C892        O893   1.274       .  A
C892       C1354   1.487       .  S
O893       Cr900   2.043       .  S
O894       Cr900   1.957       .  S
O894        C895   1.256       .  A
C895        O896   1.267       .  A
C895       C1150   1.466       .  S
O896       Cr901   2.017       .  S
O897       Cr901   1.997       .  S
O897        C898   1.263       .  A
C898       C1477   1.486       .  S
Cr899       O902   1.789       .  S
Cr900       O902   1.781       .  S
Cr901       O902   1.781       .  S
O903       Cr921   2.023       .  S
O903        C911   1.267       .  A
O904       Cr921   1.967       .  S
O904        C905   1.255       .  A
C905        O906   1.267       .  A
O906       Cr922   2.008       .  S
O907       Cr922   1.998       .  S
O907        C908   1.263       .  A
C908        O909   1.274       .  A
C908       C2910   1.512       .  S
O909       Cr923   2.052       .  S
O910       Cr923   1.953       .  S
O910        C911   1.254       .  A
O912       Cr921   1.965       .  S
O912        C920   1.254       .  A
O913       Cr921   2.015       .  S
O913        C914   1.266       .  A
C914        O915   1.264       .  A
C914       C1420   1.488       .  S
O915       Cr922   1.997       .  S
O916       Cr922   2.023       .  S
O916        C917   1.268       .  A
C917        O918   1.256       .  A
C917       C1018   1.472       .  S
O918       Cr923   1.959       .  S
O919       Cr923   2.047       .  S
O919        C920   1.275       .  A
C920       C1499   1.490       .  S
Cr921       O924   1.793       .  S
Cr922       O924   1.781       .  S
Cr923       O924   1.780       .  S
O925       Cr943   1.973   1_545  S
O925        C933   1.258       .  A
O926       Cr943   2.002       .  S
O926        C927   1.262   1_565  A
C927        O928   1.262       .  A
C927       C2885   1.479       .  S
O928       Cr944   1.994       .  S
O929       Cr944   2.014       .  S
O929        C930   1.266       .  A
C930        O931   1.255       .  A
C930       C1260   1.465       .  S
O931       Cr945   1.955       .  S
O932       Cr945   2.046       .  S
O932        C933   1.275       .  A
C933       C1684   1.492       .  S
O934       Cr943   2.001       .  S
O934        C942   1.262       .  A
O935       Cr943   1.968       .  S
O935        C936   1.256       .  A
C936        O937   1.267       .  A
O937       Cr944   2.005   1_565  S
O938       Cr944   1.992       .  S
O938        C939   1.262       .  A
C939        O940   1.275       .  A
C939       C2932   1.508       .  S
O940       Cr945   2.054       .  S
O941       Cr945   1.960   1_565  S
O941        C942   1.256       .  A
Cr943       O946   1.791   1_565  S
Cr944       O946   1.782       .  S
Cr945       O946   1.780       .  S
O947       Cr965   2.023       .  S
O947        C955   1.267       .  A
O948       Cr965   1.966       .  S
O948        C949   1.255       .  A
C949        O950   1.267       .  A
O950       Cr966   2.008       .  S
O951       Cr966   1.998       .  S
O951        C952   1.263       .  A
C952        O953   1.274       .  A
O953       Cr967   2.051       .  S
O954       Cr967   1.953       .  S
O954        C955   1.254       .  A
O956       Cr965   1.965       .  S
O956        C964   1.254       .  A
O957       Cr965   2.015       .  S
O957        C958   1.266       .  A
C958        O959   1.264       .  A
C958       C1552   1.488       .  S
O959       Cr966   1.997       .  S
O960       Cr966   2.023       .  S
O960        C961   1.268       .  A
C961        O962   1.256       .  A
C961       C1238   1.472       .  S
O962       Cr967   1.959       .  S
O963       Cr967   2.047       .  S
O963        C964   1.275       .  A
C964       C1301   1.490       .  S
Cr965       O968   1.793       .  S
Cr966       O968   1.781       .  S
Cr967       O968   1.780       .  S
O969       Cr987   2.011       .  S
O969        C977   1.263       .  A
O970       Cr987   1.954       .  S
O970        C971   1.252       .  A
C971        O972   1.267       .  A
C971       C1382   1.453       .  S
O972       Cr988   2.009       .  S
O973       Cr988   1.959       .  S
O973        C974   1.256       .  A
C974        O975   1.265       .  A
O975       Cr989   2.017       .  S
O976       Cr989   1.961       .  S
O976        C977   1.260       .  A
C977       C1662   1.466       .  S
O978       Cr987   1.947       .  S
O978        C986   1.255       .  A
O979       Cr987   2.011       .  S
O979        C980   1.264       .  A
C980        O981   1.254       .  A
C980        C993   1.457       .  S
O981       Cr988   1.947       .  S
O982       Cr988   2.017       .  S
O982        C983   1.268       .  A
C983        O984   1.263       .  A
C983       C1040   1.477       .  S
O984       Cr989   1.983       .  S
O985       Cr989   2.017       .  S
O985        C986   1.266       .  A
C986       C1024   1.459       .  S
Cr987       O990   1.789       .  S
Cr988       O990   1.768       .  S
Cr989       O990   1.776       .  S
O991      Cr1009   1.963       .  S
O991        C999   1.257       .  A
O992      Cr1009   2.011       .  S
O992        C993   1.264       .  A
C993        O994   1.255       .  A
O994      Cr1010   1.948       .  S
O995      Cr1010   2.034       .  S
O995        C996   1.271       .  A
C996        O997   1.260       .  A
C996       C1037   1.482       .  S
O997      Cr1011   1.971       .  S
O998      Cr1011   2.000       .  S
O998        C999   1.263       .  A
C999       C1030   1.454       .  S
O1000     Cr1009   2.011       .  S
O1000      C1008   1.264       .  A
O1001     Cr1009   1.957       .  S
O1001      C1002   1.253       .  A
C1002      O1003   1.269       .  A
C1002      C1728   1.458       .  S
O1003     Cr1010   2.012       .  S
O1004     Cr1010   1.961       .  S
O1004      C1005   1.255       .  A
C1005      O1006   1.264       .  A
O1006     Cr1011   2.016       .  S
O1007     Cr1011   1.957       .  S
O1007      C1008   1.261       .  A
C1008      C1536   1.463       .  S
Cr1009     O1012   1.792       .  S
Cr1010     O1012   1.769       .  S
Cr1011     O1012   1.771       .  S
O1013     Cr1031   1.951       .  S
O1013      C1021   1.252       .  A
O1014     Cr1031   2.008       .  S
O1014      C1015   1.262       .  A
C1015      O1016   1.258       .  A
C1015      C1426   1.458       .  S
O1016     Cr1032   1.949       .  S
O1017     Cr1032   2.020       .  S
O1017      C1018   1.265       .  A
C1018      O1019   1.258       .  A
O1019     Cr1033   1.966       .  S
O1020     Cr1033   2.006       .  S
O1020      C1021   1.268       .  A
C1021      C1505   1.449       .  S
O1022     Cr1031   1.996       .  S
O1022      C1030   1.262       .  A
O1023     Cr1031   1.946       .  S
O1023      C1024   1.254       .  A
C1024      O1025   1.266       .  A
O1025     Cr1032   2.017       .  S
O1026     Cr1032   1.959       .  S
O1026      C1027   1.259       .  A
C1027      O1028   1.268       .  A
C1027      C1043   1.468       .  S
O1028     Cr1033   2.023       .  S
O1029     Cr1033   1.967       .  S
O1029      C1030   1.257       .  A
Cr1031     O1034   1.785       .  S
Cr1032     O1034   1.772       .  S
Cr1033     O1034   1.771       .  S
O1035     Cr1053   2.016       .  S
O1035      C1043   1.265       .  A
O1036     Cr1053   1.974       .  S
O1036      C1037   1.260       .  A
C1037      O1038   1.269       .  A
O1038     Cr1054   2.027       .  S
O1039     Cr1054   1.984       .  S
O1039      C1040   1.259       .  A
C1040      O1041   1.265       .  A
O1041     Cr1055   2.010       .  S
O1042     Cr1055   1.959       .  S
O1042      C1043   1.255       .  A
O1044     Cr1053   1.977       .  S
O1044      C1052   1.258       .  A
O1045     Cr1053   2.009       .  S
O1045      C1046   1.265       .  A
C1046      O1047   1.260       .  A
C1046      C1093   1.473       .  S
O1047     Cr1054   1.980       .  S
O1048     Cr1054   2.030       .  S
O1048      C1049   1.270       .  A
C1049      O1050   1.256       .  A
C1049      C1071   1.474       .  S
O1050     Cr1055   1.956       .  S
O1051     Cr1055   2.015       .  S
O1051      C1052   1.266       .  A
C1052      C1115   1.475       .  S
Cr1053     O1056   1.785       .  S
Cr1054     O1056   1.789       .  S
Cr1055     O1056   1.781       .  S
O1057     Cr1075   1.951       .  S
O1057      C1065   1.252       .  A
O1058     Cr1075   2.014       .  S
O1058      C1059   1.265       .  A
C1059      O1060   1.259       .  A
C1059      C1778   1.462       .  S
O1060     Cr1076   1.952       .  S
O1061     Cr1076   2.021       .  S
O1061      C1062   1.265       .  A
C1062      O1063   1.256       .  A
O1063     Cr1077   1.957       .  S
O1064     Cr1077   2.009       .  S
O1064      C1065   1.268       .  A
C1065      C1398   1.452       .  S
O1066     Cr1075   2.012       .  S
O1066      C1074   1.265       .  A
O1067     Cr1075   1.947       .  S
O1067      C1068   1.255       .  A
C1068      O1069   1.265       .  A
C1068      C1118   1.458       .  S
O1069     Cr1076   2.015       .  S
O1070     Cr1076   1.966       .  S
O1070      C1071   1.260       .  A
C1071      O1072   1.268       .  A
O1072     Cr1077   2.025       .  S
O1073     Cr1077   1.950       .  S
O1073      C1074   1.255       .  A
C1074      C1090   1.458       .  S
Cr1075     O1078   1.786       .  S
Cr1076     O1078   1.771       .  S
Cr1077     O1078   1.767       .  S
O1079     Cr1097   2.008       .  S
O1079      C1087   1.263       .  A
O1080     Cr1097   1.959       .  S
O1080      C1081   1.252       .  A
C1081      O1082   1.266       .  A
C1081      C1756   1.454       .  S
O1082     Cr1098   2.003       .  S
O1083     Cr1098   1.963       .  S
O1083      C1084   1.257       .  A
C1084      O1085   1.262       .  A
O1085     Cr1099   2.012       .  S
O1086     Cr1099   1.960       .  S
O1086      C1087   1.261       .  A
C1087      C1461   1.463       .  S
O1088     Cr1097   1.959       .  S
O1088      C1096   1.256       .  A
O1089     Cr1097   2.014       .  S
O1089      C1090   1.265       .  A
C1090      O1091   1.255       .  A
O1091     Cr1098   1.948       .  S
O1092     Cr1098   2.014       .  S
O1092      C1093   1.267       .  A
C1093      O1094   1.262       .  A
O1094     Cr1099   1.980       .  S
O1095     Cr1099   1.999       .  S
O1095      C1096   1.263       .  A
C1096      C1112   1.450       .  S
Cr1097     O1100   1.794       .  S
Cr1098     O1100   1.768       .  S
Cr1099     O1100   1.776       .  S
O1101     Cr1119   2.006       .  S
O1101      C1109   1.261       .  A
O1102     Cr1119   1.957       .  S
O1102      C1103   1.253       .  A
C1103      O1104   1.267       .  A
C1103      C1580   1.454       .  S
O1104     Cr1120   2.007       .  S
O1105     Cr1120   1.962       .  S
O1105      C1106   1.257       .  A
C1106      O1107   1.264       .  A
C1106      C2919   1.467       .  S
O1107     Cr1121   2.015       .  S
O1108     Cr1121   1.964       .  S
O1108      C1109   1.260       .  A
C1109      C1439   1.465       .  S
O1110     Cr1119   1.945       .  S
O1110      C1118   1.254       .  A
O1111     Cr1119   1.997       .  S
O1111      C1112   1.262       .  A
C1112      O1113   1.255       .  A
O1113     Cr1120   1.958       .  S
O1114     Cr1120   2.015       .  S
O1114      C1115   1.268       .  A
C1115      O1116   1.262       .  A
O1116     Cr1121   1.982       .  S
O1117     Cr1121   2.018       .  S
O1117      C1118   1.266       .  A
Cr1119     O1122   1.788       .  S
Cr1120     O1122   1.772       .  S
Cr1121     O1122   1.778       .  S
O1123     Cr1141   1.949       .  S
O1123      C1131   1.252       .  A
O1124     Cr1141   2.013       .  S
O1124      C1125   1.264       .  A
C1125      O1126   1.258       .  A
C1125      C1624   1.462       .  S
O1126     Cr1142   1.951       .  S
O1127     Cr1142   2.007       .  S
O1127      C1128   1.264       .  A
C1128      O1129   1.257       .  A
O1129     Cr1143   1.968       .  S
O1130     Cr1143   2.010       .  S
O1130      C1131   1.269       .  A
C1131      C1288   1.451       .  S
O1132     Cr1141   2.005       .  S
O1132      C1140   1.262       .  A
O1133     Cr1141   1.952       .  S
O1133      C1134   1.255       .  A
C1134      O1135   1.264       .  A
C1134      C1184   1.459       .  S
O1135     Cr1142   2.012       .  S
O1136     Cr1142   1.969       .  S
O1136      C1137   1.261       .  A
C1137      O1138   1.268       .  A
C1137      C1200   1.475       .  S
O1138     Cr1143   2.024       .  S
O1139     Cr1143   1.953       .  S
O1139      C1140   1.256       .  A
C1140      C1156   1.457       .  S
Cr1141     O1144   1.789       .  S
Cr1142     O1144   1.769       .  S
Cr1143     O1144   1.772       .  S
O1145     Cr1163   2.009       .  S
O1145      C1153   1.263       .  A
O1146     Cr1163   1.962       .  S
O1146      C1147   1.253       .  A
C1147      O1148   1.266       .  A
C1147      C1360   1.458       .  S
O1148     Cr1164   2.006       .  S
O1149     Cr1164   1.962       .  S
O1149      C1150   1.255       .  A
C1150      O1151   1.263       .  A
O1151     Cr1165   2.012       .  S
O1152     Cr1165   1.961       .  S
O1152      C1153   1.262       .  A
C1153      C1483   1.464       .  S
O1154     Cr1163   1.964       .  S
O1154      C1162   1.258       .  A
O1155     Cr1163   2.013       .  S
O1155      C1156   1.265       .  A
C1156      O1157   1.254       .  A
O1157     Cr1164   1.945       .  S
O1158     Cr1164   2.018       .  S
O1158      C1159   1.268       .  A
C1159      O1160   1.262       .  A
C1159      C1206   1.476       .  S
O1160     Cr1165   1.981       .  S
O1161     Cr1165   2.000       .  S
O1161      C1162   1.263       .  A
C1162      C1178   1.454       .  S
Cr1163     O1166   1.794       .  S
Cr1164     O1166   1.770       .  S
Cr1165     O1166   1.776       .  S
O1167     Cr1185   2.008       .  S
O1167      C1175   1.262       .  A
O1168     Cr1185   1.953       .  S
O1168      C1169   1.252       .  A
C1169      O1170   1.267       .  A
C1169      C1712   1.449       .  S
O1170     Cr1186   2.003       .  S
O1171     Cr1186   1.976       .  S
O1171      C1172   1.259       .  A
C1172      O1173   1.263       .  A
C1172      C2941   1.465       .  S
O1173     Cr1187   2.003       .  S
O1174     Cr1187   1.956       .  S
O1174      C1175   1.258       .  A
C1175      C1640   1.463       .  S
O1176     Cr1185   1.948       .  S
O1176      C1184   1.254       .  A
O1177     Cr1185   1.995       .  S
O1177      C1178   1.261       .  A
C1178      O1179   1.256       .  A
O1179     Cr1186   1.967       .  S
O1180     Cr1186   2.006       .  S
O1180      C1181   1.266       .  A
C1181      O1182   1.262       .  A
C1181      C1203   1.466       .  S
O1182     Cr1187   1.978       .  S
O1183     Cr1187   2.015       .  S
O1183      C1184   1.265       .  A
Cr1185     O1188   1.790       .  S
Cr1186     O1188   1.776       .  S
Cr1187     O1188   1.776       .  S
O1189     Cr1207   2.020       .  S
O1189      C1197   1.267       .  A
O1190     Cr1207   1.974       .  S
O1190      C1191   1.258       .  A
C1191      O1192   1.267       .  A
C1191      C1216   1.480       .  S
O1192     Cr1208   2.022       .  S
O1193     Cr1208   1.980       .  S
O1193      C1194   1.259       .  A
C1194      O1195   1.265       .  A
C1194      C1269   1.473       .  S
O1195     Cr1209   2.010       .  S
O1196     Cr1209   1.961       .  S
O1196      C1197   1.257       .  A
C1197      C1247   1.471       .  S
O1198     Cr1207   1.981       .  S
O1198      C1206   1.259       .  A
O1199     Cr1207   2.025       .  S
O1199      C1200   1.269       .  A
C1200      O1201   1.256       .  A
O1201     Cr1208   1.963       .  S
O1202     Cr1208   2.012       .  S
O1202      C1203   1.267       .  A
C1203      O1204   1.257       .  A
O1204     Cr1209   1.966       .  S
O1205     Cr1209   2.014       .  S
O1205      C1206   1.266       .  A
Cr1207     O1210   1.786       .  S
Cr1208     O1210   1.785       .  S
Cr1209     O1210   1.782       .  S
O1211     Cr1229   1.963       .  S
O1211      C1219   1.257       .  A
O1212     Cr1229   2.010       .  S
O1212      C1213   1.264       .  A
C1213      O1214   1.255       .  A
C1213      C1266   1.457       .  S
O1214     Cr1230   1.949       .  S
O1215     Cr1230   2.033       .  S
O1215      C1216   1.271       .  A
C1216      O1217   1.260       .  A
O1217     Cr1231   1.970       .  S
O1218     Cr1231   1.998       .  S
O1218      C1219   1.262       .  A
C1219      C1250   1.452       .  S
O1220     Cr1229   2.010       .  S
O1220      C1228   1.264       .  A
O1221     Cr1229   1.958       .  S
O1221      C1222   1.253       .  A
C1222      O1223   1.269       .  A
C1222      C1596   1.458       .  S
O1223     Cr1230   2.012       .  S
O1224     Cr1230   1.961       .  S
O1224      C1225   1.255       .  A
C1225      O1226   1.263       .  A
O1226     Cr1231   2.014       .  S
O1227     Cr1231   1.955       .  S
O1227      C1228   1.260       .  A
C1228      C1338   1.461       .  S
Cr1229     O1232   1.792       .  S
Cr1230     O1232   1.768       .  S
Cr1231     O1232   1.772       .  S
O1233     Cr1251   1.951       .  S
O1233      C1241   1.253       .  A
O1234     Cr1251   2.007       .  S
O1234      C1235   1.262       .  A
C1235      O1236   1.258       .  A
C1235      C1558   1.459       .  S
O1236     Cr1252   1.952       .  S
O1237     Cr1252   2.020       .  S
O1237      C1238   1.265       .  A
C1238      O1239   1.258       .  A
O1239     Cr1253   1.966       .  S
O1240     Cr1253   2.008       .  S
O1240      C1241   1.268       .  A
C1241      C1307   1.450       .  S
O1242     Cr1251   1.995       .  S
O1242      C1250   1.261       .  A
O1243     Cr1251   1.945       .  S
O1243      C1244   1.254       .  A
C1244      O1245   1.266       .  A
C1244      C1272   1.458       .  S
O1245     Cr1252   2.017       .  S
O1246     Cr1252   1.962       .  S
O1246      C1247   1.259       .  A
C1247      O1248   1.269       .  A
O1248     Cr1253   2.025       .  S
O1249     Cr1253   1.966       .  S
O1249      C1250   1.257       .  A
Cr1251     O1254   1.785       .  S
Cr1252     O1254   1.772       .  S
Cr1253     O1254   1.771       .  S
O1255     Cr1273   2.012       .  S
O1255      C1263   1.264       .  A
O1256     Cr1273   1.955       .  S
O1256      C1257   1.252       .  A
C1257      O1258   1.267       .  A
C1257      C1690   1.454       .  S
O1258     Cr1274   2.008       .  S
O1259     Cr1274   1.958       .  S
O1259      C1260   1.256       .  A
C1260      O1261   1.265       .  A
O1261     Cr1275   2.015       .  S
O1262     Cr1275   1.959       .  S
O1262      C1263   1.260       .  A
C1263      C2891   1.466       .  S
O1264     Cr1273   1.947       .  S
O1264      C1272   1.255       .  A
O1265     Cr1273   2.012       .  S
O1265      C1266   1.264       .  A
C1266      O1267   1.254       .  A
O1267     Cr1274   1.947       .  S
O1268     Cr1274   2.015       .  S
O1268      C1269   1.267       .  A
C1269      O1270   1.262       .  A
O1270     Cr1275   1.981       .  S
O1271     Cr1275   2.015       .  S
O1271      C1272   1.265       .  A
Cr1273     O1276   1.788       .  S
Cr1274     O1276   1.767       .  S
Cr1275     O1276   1.776       .  S
O1277     Cr1295   1.923       .  S
O1277      C1285   1.253       .  A
O1278     Cr1295   2.006       .  S
O1278      C1279   1.260       .  A
C1279      O1280   1.260       .  A
O1280     Cr1296   1.992       .  S
O1281     Cr1296   2.037       .  S
O1281      C1282   1.271       .  A
C1282      O1283   1.265       .  A
C1282      C1797   1.504       .  S
O1283     Cr1297   1.999       .  S
O1284     Cr1297   2.025   1_455  S
O1284      C1285   1.268   1_455  A
C1285      C2605   1.450   1_655  S
O1286     Cr1295   2.009       .  S
O1286      C1294   1.261       .  A
O1287     Cr1295   1.935       .  S
O1287      C1288   1.253       .  A
C1288      O1289   1.273       .  A
O1289     Cr1296   2.026       .  S
O1290     Cr1296   1.971       .  S
O1290      C1291   1.259       .  A
C1291      O1292   1.268       .  A
C1291      C1621   1.483       .  S
O1292     Cr1297   2.024       .  S
O1293     Cr1297   2.004       .  S
O1293      C1294   1.263       .  A
Cr1295     O1298   1.784       .  S
Cr1296     O1298   1.787       .  S
Cr1297     O1298   1.793       .  S
O1299     Cr1317   1.936       .  S
O1299      C1307   1.254       .  A
O1300     Cr1317   2.024       .  S
O1300      C1301   1.262       .  A
C1301      O1302   1.263       .  A
O1302     Cr1318   1.993       .  S
O1303     Cr1318   2.019       .  S
O1303      C1304   1.267       .  A
C1304      O1305   1.259       .  A
C1304      C1555   1.483       .  S
O1305     Cr1319   1.975       .  S
O1306     Cr1319   2.025       .  S
O1306      C1307   1.273       .  A
O1308     Cr1317   2.010       .  S
O1308      C1316   1.262       .  A
O1309     Cr1317   1.920       .  S
O1309      C1310   1.253       .  A
C1310      O1311   1.268       .  A
C1310      C2715   1.447       .  S
O1311     Cr1318   2.023       .  S
O1312     Cr1318   1.996       .  S
O1312      C1313   1.264       .  A
C1313      O1314   1.272       .  A
C1313      C1901   1.504       .  S
O1314     Cr1319   2.040       .  S
O1315     Cr1319   1.993       .  S
O1315      C1316   1.261       .  A
Cr1317     O1320   1.785       .  S
Cr1318     O1320   1.788       .  S
Cr1319     O1320   1.785       .  S
O1321     Cr1339   2.017       .  S
O1321      C1329   1.261       .  A
O1322     Cr1339   1.922       .  S
O1322      C1323   1.255       .  A
C1323      O1324   1.269   1_655  A
C1323      C2665   1.447   1_655  S
O1324     Cr1340   2.025   1_455  S
O1325     Cr1340   1.993       .  S
O1325      C1326   1.264       .  A
C1326      O1327   1.273       .  A
C1326      C1816   1.504       .  S
O1327     Cr1341   2.041       .  S
O1328     Cr1341   1.982       .  S
O1328      C1329   1.258       .  A
O1330     Cr1339   1.924       .  S
O1330      C1338   1.252       .  A
O1331     Cr1339   2.006       .  S
O1331      C1332   1.260       .  A
C1332      O1333   1.263       .  A
O1333     Cr1340   2.000       .  S
O1334     Cr1340   2.024       .  S
O1334      C1335   1.268       .  A
C1335      O1336   1.260       .  A
C1335      C1599   1.482       .  S
O1336     Cr1341   1.971       .  S
O1337     Cr1341   2.048       .  S
O1337      C1338   1.276       .  A
Cr1339     O1342   1.776       .  S
Cr1340     O1342   1.786       .  S
Cr1341     O1342   1.779       .  S
O1343     Cr1361   2.022       .  S
O1343      C1351   1.264       .  A
O1344     Cr1361   1.928       .  S
O1344      C1345   1.254       .  A
C1345      O1346   1.269       .  A
C1345      C2636   1.454       .  S
O1346     Cr1362   2.027       .  S
O1347     Cr1362   1.994       .  S
O1347      C1348   1.264       .  A
C1348      O1349   1.271       .  A
C1348      C1992   1.503       .  S
O1349     Cr1363   2.039       .  S
O1350     Cr1363   1.981       .  S
O1350      C1351   1.259       .  A
O1352     Cr1361   1.942       .  S
O1352      C1360   1.255       .  A
O1353     Cr1361   2.027       .  S
O1353      C1354   1.264       .  A
C1354      O1355   1.262       .  A
O1355     Cr1362   1.986       .  S
O1356     Cr1362   2.028       .  S
O1356      C1357   1.269       .  A
C1357      O1358   1.259       .  A
C1357      C1480   1.485       .  S
O1358     Cr1363   1.971       .  S
O1359     Cr1363   2.030       .  S
O1359      C1360   1.273       .  A
Cr1361     O1364   1.786       .  S
Cr1362     O1364   1.786       .  S
Cr1363     O1364   1.780       .  S
O1365     Cr1383   2.024       .  S
O1365      C1373   1.265       .  A
O1366     Cr1383   1.923       .  S
O1366      C1367   1.253   1_565  A
C1367      O1368   1.269       .  A
C1367      C2291   1.450       .  S
O1368     Cr1384   2.025       .  S
O1369     Cr1384   1.998       .  S
O1369      C1370   1.265   1_545  A
C1370      O1371   1.271       .  A
C1370      C1964   1.505       .  S
O1371     Cr1385   2.040       .  S
O1372     Cr1385   1.980       .  S
O1372      C1373   1.259       .  A
O1374     Cr1383   1.938       .  S
O1374      C1382   1.253       .  A
O1375     Cr1383   2.028       .  S
O1375      C1376   1.265       .  A
C1376      O1377   1.262   1_565  A
O1377     Cr1384   1.990       .  S
O1378     Cr1384   2.025   1_565  S
O1378      C1379   1.268       .  A
C1379      O1380   1.258       .  A
C1379      C1665   1.482       .  S
O1380     Cr1385   1.968       .  S
O1381     Cr1385   2.028       .  S
O1381      C1382   1.273       .  A
Cr1383     O1386   1.786       .  S
Cr1384     O1386   1.786   1_545  S
Cr1385     O1386   1.780       .  S
O1387     Cr1405   1.923       .  S
O1387      C1395   1.254   1_565  A
O1388     Cr1405   2.019       .  S
O1388      C1389   1.263       .  A
C1389      O1390   1.259       .  A
O1390     Cr1406   1.979       .  S
O1391     Cr1406   2.040       .  S
O1391      C1392   1.272       .  A
C1392      O1393   1.264   1_565  A
C1392      C1917   1.505       .  S
O1393     Cr1407   1.996   1_545  S
O1394     Cr1407   2.024   1_545  S
O1394      C1395   1.268       .  A
C1395      C2407   1.448       .  S
O1396     Cr1405   2.024       .  S
O1396      C1404   1.263       .  A
O1397     Cr1405   1.937       .  S
O1397      C1398   1.254       .  A
C1398      O1399   1.273       .  A
O1399     Cr1406   2.028       .  S
O1400     Cr1406   1.967       .  S
O1400      C1401   1.258       .  A
C1401      O1402   1.268       .  A
C1401      C1775   1.480       .  S
O1402     Cr1407   2.023       .  S
O1403     Cr1407   1.987       .  S
O1403      C1404   1.262       .  A
Cr1405     O1408   1.785       .  S
Cr1406     O1408   1.779       .  S
Cr1407     O1408   1.785       .  S
O1409     Cr1427   2.010       .  S
O1409      C1417   1.261       .  A
O1410     Cr1427   1.917       .  S
O1410      C1411   1.253       .  A
C1411      O1412   1.269       .  A
C1411      C2203   1.444       .  S
O1412     Cr1428   2.024       .  S
O1413     Cr1428   1.996       .  S
O1413      C1414   1.265       .  A
C1414      O1415   1.273       .  A
C1414      C1983   1.505       .  S
O1415     Cr1429   2.042       .  S
O1416     Cr1429   1.995       .  S
O1416      C1417   1.260       .  A
O1418     Cr1427   1.922       .  S
O1418      C1426   1.252       .  A
O1419     Cr1427   2.008       .  S
O1419      C1420   1.260       .  A
C1420      O1421   1.264       .  A
O1421     Cr1428   2.008       .  S
O1422     Cr1428   2.020       .  S
O1422      C1423   1.267       .  A
C1423      O1424   1.261       .  A
C1423      C1502   1.483       .  S
O1424     Cr1429   1.977       .  S
O1425     Cr1429   2.044       .  S
O1425      C1426   1.275       .  A
Cr1427     O1430   1.774       .  S
Cr1428     O1430   1.790       .  S
Cr1429     O1430   1.787       .  S
O1431     Cr1449   1.926       .  S
O1431      C1439   1.251       .  A
O1432     Cr1449   2.011       .  S
O1432      C1433   1.262       .  A
C1433      O1434   1.264       .  A
C1433      C2922   1.485       .  S
O1434     Cr1450   2.002       .  S
O1435     Cr1450   2.025       .  S
O1435      C1436   1.269       .  A
C1436      O1437   1.260       .  A
C1436      C1577   1.483       .  S
O1437     Cr1451   1.972       .  S
O1438     Cr1451   2.052       .  S
O1438      C1439   1.277       .  A
O1440     Cr1449   2.022       .  S
O1440      C1448   1.262       .  A
O1441     Cr1449   1.921       .  S
O1441      C1442   1.254       .  A
C1442      O1443   1.269       .  A
C1442      C2319   1.447       .  S
O1443     Cr1450   2.025       .  S
O1444     Cr1450   1.996       .  S
O1444      C1445   1.265       .  A
C1445      O1446   1.273       .  A
C1445      C1910   1.507       .  S
O1446     Cr1451   2.045       .  S
O1447     Cr1451   1.981       .  S
O1447      C1448   1.258       .  A
Cr1449     O1452   1.777       .  S
Cr1450     O1452   1.788       .  S
Cr1451     O1452   1.779       .  S
O1453     Cr1471   1.926       .  S
O1453      C1461   1.252       .  A
O1454     Cr1471   2.010       .  S
O1454      C1455   1.261       .  A
C1455      O1456   1.263       .  A
O1456     Cr1472   2.004       .  S
O1457     Cr1472   2.021       .  S
O1457      C1458   1.268       .  A
C1458      O1459   1.260       .  A
C1458      C1753   1.482       .  S
O1459     Cr1473   1.973       .  S
O1460     Cr1473   2.050       .  S
O1460      C1461   1.276       .  A
O1462     Cr1471   2.012       .  S
O1462      C1470   1.262       .  A
O1463     Cr1471   1.919       .  S
O1463      C1464   1.253       .  A
C1464      O1465   1.269   1_455  A
C1464      C2385   1.446   1_455  S
O1465     Cr1472   2.025   1_655  S
O1466     Cr1472   1.994       .  S
O1466      C1467   1.265       .  A
C1467      O1468   1.275       .  A
C1467      C1829   1.507       .  S
O1468     Cr1473   2.047       .  S
O1469     Cr1473   1.991       .  S
O1469      C1470   1.259       .  A
Cr1471     O1474   1.776       .  S
Cr1472     O1474   1.790       .  S
Cr1473     O1474   1.785       .  S
O1475     Cr1493   1.925       .  S
O1475      C1483   1.251       .  A
O1476     Cr1493   2.011       .  S
O1476      C1477   1.262       .  A
C1477      O1478   1.264       .  A
O1478     Cr1494   2.002       .  S
O1479     Cr1494   2.028       .  S
O1479      C1480   1.269       .  A
C1480      O1481   1.260       .  A
O1481     Cr1495   1.972       .  S
O1482     Cr1495   2.051       .  S
O1482      C1483   1.277       .  A
O1484     Cr1493   2.023       .  S
O1484      C1492   1.262       .  A
O1485     Cr1493   1.923       .  S
O1485      C1486   1.254       .  A
C1486      O1487   1.270       .  A
C1486      C2781   1.449       .  S
O1487     Cr1494   2.027       .  S
O1488     Cr1494   1.997       .  S
O1488      C1489   1.265       .  A
C1489      O1490   1.273       .  A
C1489      C1863   1.508       .  S
O1490     Cr1495   2.044       .  S
O1491     Cr1495   1.981       .  S
O1491      C1492   1.258       .  A
Cr1493     O1496   1.778       .  S
Cr1494     O1496   1.787       .  S
Cr1495     O1496   1.780       .  S
O1497     Cr1515   1.936       .  S
O1497      C1505   1.254       .  A
O1498     Cr1515   2.024       .  S
O1498      C1499   1.262       .  A
C1499      O1500   1.263       .  A
O1500     Cr1516   1.994       .  S
O1501     Cr1516   2.020       .  S
O1501      C1502   1.267       .  A
C1502      O1503   1.259       .  A
O1503     Cr1517   1.975       .  S
O1504     Cr1517   2.023       .  S
O1504      C1505   1.272       .  A
O1506     Cr1515   2.010       .  S
O1506      C1514   1.262       .  A
O1507     Cr1515   1.919       .  S
O1507      C1508   1.253       .  A
C1508      O1509   1.268       .  A
C1508      C2231   1.446       .  S
O1509     Cr1516   2.022       .  S
O1510     Cr1516   1.996       .  S
O1510      C1511   1.265       .  A
C1511      O1512   1.272       .  A
C1511      C1854   1.503       .  S
O1512     Cr1517   2.038       .  S
O1513     Cr1517   1.994       .  S
O1513      C1514   1.261       .  A
Cr1515     O1518   1.784       .  S
Cr1516     O1518   1.788       .  S
Cr1517     O1518   1.785       .  S
O1519     Cr1537   2.018       .  S
O1519      C1527   1.261       .  A
O1520     Cr1537   1.923       .  S
O1520      C1521   1.255       .  A
C1521      O1522   1.269   1_455  A
C1521      C2269   1.446   1_455  S
O1522     Cr1538   2.023   1_655  S
O1523     Cr1538   1.996       .  S
O1523      C1524   1.265       .  A
C1524      O1525   1.273       .  A
C1524      C2872   1.506       .  S
O1525     Cr1539   2.042       .  S
O1526     Cr1539   1.982       .  S
O1526      C1527   1.258       .  A
O1528     Cr1537   1.925       .  S
O1528      C1536   1.252       .  A
O1529     Cr1537   2.006       .  S
O1529      C1530   1.260       .  A
C1530      O1531   1.264       .  A
O1531     Cr1538   2.003       .  S
O1532     Cr1538   2.023       .  S
O1532      C1533   1.268       .  A
C1533      O1534   1.260       .  A
C1533      C1731   1.481       .  S
O1534     Cr1539   1.971       .  S
O1535     Cr1539   2.050       .  S
O1535      C1536   1.277       .  A
Cr1537     O1540   1.776       .  S
Cr1538     O1540   1.787       .  S
Cr1539     O1540   1.780       .  S
O1541     Cr1559   2.010       .  S
O1541      C1549   1.261       .  A
O1542     Cr1559   1.918       .  S
O1542      C1543   1.254       .  A
C1543      O1544   1.269       .  A
C1543      C2819   1.445       .  S
O1544     Cr1560   2.024       .  S
O1545     Cr1560   1.995       .  S
O1545      C1546   1.265       .  A
C1546      O1547   1.274       .  A
C1546      C1873   1.505       .  S
O1547     Cr1561   2.043       .  S
O1548     Cr1561   1.995       .  S
O1548      C1549   1.260       .  A
O1550     Cr1559   1.922       .  S
O1550      C1558   1.252       .  A
O1551     Cr1559   2.009       .  S
O1551      C1552   1.260       .  A
C1552      O1553   1.264       .  A
O1553     Cr1560   2.007       .  S
O1554     Cr1560   2.019       .  S
O1554      C1555   1.267       .  A
C1555      O1556   1.261       .  A
O1556     Cr1561   1.977       .  S
O1557     Cr1561   2.045       .  S
O1557      C1558   1.275       .  A
Cr1559     O1562   1.775       .  S
Cr1560     O1562   1.790       .  S
Cr1561     O1562   1.787       .  S
O1563     Cr1581   2.023       .  S
O1563      C1571   1.264       .  A
O1564     Cr1581   1.923       .  S
O1564      C1565   1.254       .  A
C1565      O1566   1.268       .  A
C1565      C2357   1.449       .  S
O1566     Cr1582   2.024       .  S
O1567     Cr1582   1.993       .  S
O1567      C1568   1.264       .  A
C1568      O1569   1.271       .  A
C1568      C1882   1.501       .  S
O1569     Cr1583   2.037       .  S
O1570     Cr1583   1.982       .  S
O1570      C1571   1.260       .  A
O1572     Cr1581   1.939       .  S
O1572      C1580   1.254       .  A
O1573     Cr1581   2.026       .  S
O1573      C1574   1.264       .  A
C1574      O1575   1.262       .  A
C1574      C2916   1.486       .  S
O1575     Cr1582   1.986       .  S
O1576     Cr1582   2.024       .  S
O1576      C1577   1.268       .  A
C1577      O1578   1.259       .  A
O1578     Cr1583   1.970       .  S
O1579     Cr1583   2.028       .  S
O1579      C1580   1.273       .  A
Cr1581     O1584   1.785       .  S
Cr1582     O1584   1.786       .  S
Cr1583     O1584   1.778       .  S
O1585     Cr1603   1.921       .  S
O1585      C1593   1.252       .  A
O1586     Cr1603   2.014       .  S
O1586      C1587   1.264       .  A
C1587      O1588   1.261       .  A
O1588     Cr1604   1.991       .  S
O1589     Cr1604   2.046       .  S
O1589      C1590   1.273       .  A
C1590      O1591   1.265       .  A
C1590      C1838   1.508       .  S
O1591     Cr1605   1.997       .  S
O1592     Cr1605   2.025   1_455  S
O1592      C1593   1.268   1_455  A
C1593      C2847   1.449   1_655  S
O1594     Cr1603   2.027       .  S
O1594      C1602   1.264       .  A
O1595     Cr1603   1.942       .  S
O1595      C1596   1.254       .  A
C1596      O1597   1.274       .  A
O1597     Cr1604   2.031       .  S
O1598     Cr1604   1.972       .  S
O1598      C1599   1.259       .  A
C1599      O1600   1.267       .  A
O1600     Cr1605   2.020       .  S
O1601     Cr1605   1.991       .  S
O1601      C1602   1.262       .  A
Cr1603     O1606   1.786       .  S
Cr1604     O1606   1.784       .  S
Cr1605     O1606   1.790       .  S
O1607     Cr1625   2.008       .  S
O1607      C1615   1.261       .  A
O1608     Cr1625   1.919       .  S
O1608      C1609   1.254       .  A
C1609      O1610   1.269   1_655  A
C1609      C2731   1.446   1_655  S
O1610     Cr1626   2.025   1_455  S
O1611     Cr1626   1.990       .  S
O1611      C1612   1.264       .  A
C1612      O1613   1.276       .  A
C1612      C2863   1.506       .  S
O1613     Cr1627   2.049       .  S
O1614     Cr1627   1.992       .  S
O1614      C1615   1.260       .  A
C1615      C2979   1.479       .  S
O1616     Cr1625   1.927       .  S
O1616      C1624   1.254       .  A
O1617     Cr1625   2.016       .  S
O1617      C1618   1.260       .  A
C1618      O1619   1.263       .  A
O1619     Cr1626   1.992       .  S
O1620     Cr1626   2.019       .  S
O1620      C1621   1.266       .  A
C1621      O1622   1.260       .  A
O1622     Cr1627   1.977       .  S
O1623     Cr1627   2.047       .  S
O1623      C1624   1.276       .  A
Cr1625     O1628   1.776       .  S
Cr1626     O1628   1.785       .  S
Cr1627     O1628   1.783       .  S
O1629     Cr1647   1.920       .  S
O1629      C1637   1.254       .  A
O1630     Cr1647   2.020       .  S
O1630      C1631   1.262       .  A
C1631      O1632   1.258       .  A
C1631      C2988   1.479       .  S
O1632     Cr1648   1.979       .  S
O1633     Cr1648   2.048       .  S
O1633      C1634   1.275       .  A
C1634      O1635   1.264       .  A
C1634      C1942   1.506       .  S
O1635     Cr1649   1.991       .  S
O1636     Cr1649   2.023       .  S
O1636      C1637   1.268       .  A
C1637      C2649   1.445       .  S
O1638     Cr1647   2.018       .  S
O1638      C1646   1.261       .  A
O1639     Cr1647   1.926       .  S
O1639      C1640   1.253       .  A
C1640      O1641   1.277       .  A
O1641     Cr1648   2.050       .  S
O1642     Cr1648   1.971       .  S
O1642      C1643   1.259       .  A
C1643      O1644   1.267       .  A
C1643      C1709   1.479       .  S
O1644     Cr1649   2.019       .  S
O1645     Cr1649   1.989       .  S
O1645      C1646   1.263       .  A
C1646      C2944   1.483       .  S
Cr1647     O1650   1.777       .  S
Cr1648     O1650   1.778       .  S
Cr1649     O1650   1.782       .  S
O1651     Cr1669   1.926       .  S
O1651      C1659   1.255   1_565  A
O1652     Cr1669   2.017       .  S
O1652      C1653   1.261       .  A
C1653      O1654   1.258       .  A
O1654     Cr1670   1.981       .  S
O1655     Cr1670   2.044       .  S
O1655      C1656   1.274       .  A
C1656      O1657   1.265   1_565  A
C1656      C1951   1.507       .  S
O1657     Cr1671   1.996       .  S
O1658     Cr1671   2.026       .  S
O1658      C1659   1.269       .  A
C1659      C2253   1.450       .  S
O1660     Cr1669   2.005       .  S
O1660      C1668   1.260       .  A
O1661     Cr1669   1.928       .  S
O1661      C1662   1.252       .  A
C1662      O1663   1.277       .  A
O1663     Cr1670   2.052       .  S
O1664     Cr1670   1.971       .  S
O1664      C1665   1.260       .  A
C1665      O1666   1.268       .  A
O1666     Cr1671   2.025   1_565  S
O1667     Cr1671   2.001       .  S
O1667      C1668   1.264   1_545  A
Cr1669     O1672   1.777       .  S
Cr1670     O1672   1.780       .  S
Cr1671     O1672   1.788   1_545  S
O1673     Cr1691   2.028       .  S
O1673      C1681   1.265       .  A
O1674     Cr1691   1.922       .  S
O1674      C1675   1.253       .  A
C1675      O1676   1.269       .  A
C1675      C2687   1.450       .  S
O1676     Cr1692   2.025       .  S
O1677     Cr1692   1.999       .  S
O1677      C1678   1.265       .  A
C1678      O1679   1.271       .  A
C1678      C2423   1.506       .  S
O1679     Cr1693   2.041       .  S
O1680     Cr1693   1.980       .  S
O1680      C1681   1.259       .  A
O1682     Cr1691   1.937       .  S
O1682      C1690   1.253       .  A
O1683     Cr1691   2.031       .  S
O1683      C1684   1.266       .  A
C1684      O1685   1.262       .  A
O1685     Cr1692   1.990       .  S
O1686     Cr1692   2.024       .  S
O1686      C1687   1.268       .  A
C1687      O1688   1.258       .  A
C1687      C2888   1.481       .  S
O1688     Cr1693   1.968       .  S
O1689     Cr1693   2.029       .  S
O1689      C1690   1.273       .  A
Cr1691     O1694   1.786       .  S
Cr1692     O1694   1.786       .  S
Cr1693     O1694   1.779       .  S
O1695     Cr1713   2.006       .  S
O1695      C1703   1.260       .  A
O1696     Cr1713   1.921       .  S
O1696      C1697   1.254       .  A
C1697      O1698   1.267       .  A
C1697      C2753   1.445       .  S
O1698     Cr1714   2.019       .  S
O1699     Cr1714   1.998       .  S
O1699      C1700   1.265       .  A
C1700      O1701   1.270       .  A
C1700      C1973   1.502       .  S
O1701     Cr1715   2.034       .  S
O1702     Cr1715   1.994       .  S
O1702      C1703   1.260       .  A
O1704     Cr1713   1.935       .  S
O1704      C1712   1.253       .  A
O1705     Cr1713   2.009       .  S
O1705      C1706   1.261       .  A
C1706      O1707   1.263       .  A
C1706      C2938   1.487       .  S
O1707     Cr1714   2.004       .  S
O1708     Cr1714   2.019       .  S
O1708      C1709   1.267       .  A
C1709      O1710   1.259       .  A
O1710     Cr1715   1.969       .  S
O1711     Cr1715   2.024       .  S
O1711      C1712   1.272       .  A
Cr1713     O1716   1.782       .  S
Cr1714     O1716   1.794       .  S
Cr1715     O1716   1.787       .  S
O1717     Cr1735   1.923       .  S
O1717      C1725   1.252       .  A
O1718     Cr1735   2.013       .  S
O1718      C1719   1.263       .  A
C1719      O1720   1.260       .  A
O1720     Cr1736   1.988       .  S
O1721     Cr1736   2.044       .  S
O1721      C1722   1.273       .  A
C1722      O1723   1.265       .  A
C1722      C1788   1.507       .  S
O1723     Cr1737   1.997       .  S
O1724     Cr1737   2.025   1_655  S
O1724      C1725   1.268   1_655  A
C1725      C2165   1.450   1_455  S
O1726     Cr1735   2.025       .  S
O1726      C1734   1.264       .  A
O1727     Cr1735   1.942       .  S
O1727      C1728   1.254       .  A
C1728      O1729   1.273       .  A
O1729     Cr1736   2.030       .  S
O1730     Cr1736   1.971       .  S
O1730      C1731   1.259       .  A
C1731      O1732   1.267       .  A
O1732     Cr1737   2.021       .  S
O1733     Cr1737   1.992       .  S
O1733      C1734   1.262       .  A
Cr1735     O1738   1.786       .  S
Cr1736     O1738   1.784       .  S
Cr1737     O1738   1.789       .  S
O1739     Cr1757   2.006       .  S
O1739      C1747   1.261       .  A
O1740     Cr1757   1.924       .  S
O1740      C1741   1.254       .  A
C1741      O1742   1.268   1_455  A
C1741      C2181   1.449   1_455  S
O1742     Cr1758   2.023   1_655  S
O1743     Cr1758   1.995       .  S
O1743      C1744   1.264       .  A
C1744      O1745   1.273       .  A
C1744      C1807   1.505       .  S
O1745     Cr1759   2.042       .  S
O1746     Cr1759   1.993       .  S
O1746      C1747   1.261       .  A
O1748     Cr1757   1.941       .  S
O1748      C1756   1.255       .  A
O1749     Cr1757   2.020       .  S
O1749      C1750   1.261       .  A
C1750      O1751   1.262       .  A
O1751     Cr1758   1.989       .  S
O1752     Cr1758   2.020       .  S
O1752      C1753   1.267       .  A
C1753      O1754   1.258       .  A
O1754     Cr1759   1.973       .  S
O1755     Cr1759   2.028       .  S
O1755      C1756   1.273       .  A
Cr1757     O1760   1.784       .  S
Cr1758     O1760   1.788       .  S
Cr1759     O1760   1.785       .  S
O1761     Cr1779   2.009       .  S
O1761      C1769   1.261       .  A
O1762     Cr1779   1.919       .  S
O1762      C1763   1.254   1_565  A
C1763      O1764   1.268       .  A
C1763      C2335   1.445       .  S
O1764     Cr1780   2.023   1_545  S
O1765     Cr1780   1.995   1_545  S
O1765      C1766   1.265   1_545  A
C1766      O1767   1.274       .  A
C1766      C2432   1.506       .  S
O1767     Cr1781   2.044       .  S
O1768     Cr1781   1.993       .  S
O1768      C1769   1.260       .  A
O1770     Cr1779   1.926       .  S
O1770      C1778   1.253       .  A
O1771     Cr1779   2.007       .  S
O1771      C1772   1.260       .  A
C1772      O1773   1.263   1_565  A
O1773     Cr1780   2.005   1_545  S
O1774     Cr1780   2.018       .  S
O1774      C1775   1.267       .  A
C1775      O1776   1.261       .  A
O1776     Cr1781   1.973       .  S
O1777     Cr1781   2.047       .  S
O1777      C1778   1.275       .  A
Cr1779     O1782   1.775       .  S
Cr1780     O1782   1.791       .  S
Cr1781     O1782   1.786       .  S
O1783     Cr1801   2.026   1_456  S
O1783      C1791   1.265       .  A
O1784     Cr1801   1.923   1_556  S
O1784      C1785   1.253       .  A
C1785      O1786   1.267       .  A
C1785      C2159   1.429       .  S
O1786     Cr1802   2.005       .  S
O1787     Cr1802   1.998       .  S
O1787      C1788   1.263   1_655  A
C1788      O1789   1.270       .  A
O1789     Cr1803   2.035   1_556  S
O1790     Cr1803   1.992   1_556  S
O1790      C1791   1.262       .  A
O1792     Cr1801   1.925   1_455  S
O1792      C1800   1.253       .  A
O1793     Cr1801   2.025       .  S
O1793      C1794   1.264       .  A
C1794      O1795   1.262       .  A
O1795     Cr1802   1.994   1_554  S
O1796     Cr1802   2.032   1_554  S
O1796      C1797   1.270       .  A
C1797      O1798   1.262   1_655  A
O1798     Cr1803   1.995       .  S
O1799     Cr1803   2.006       .  S
O1799      C1800   1.267       .  A
C1800      C2599   1.430       .  S
Cr1801     O1804   1.786       .  S
Cr1802     O1804   1.784   1_556  S
Cr1803     O1804   1.785   1_455  S
O1805     Cr1823   1.998       .  S
O1805      C1813   1.262       .  A
O1806     Cr1823   2.029       .  S
O1806      C1807   1.269       .  A
C1807      O1808   1.263   1_455  A
O1808     Cr1824   2.000       .  S
O1809     Cr1824   2.003       .  S
O1809      C1810   1.266       .  A
C1810      O1811   1.253       .  A
C1810      C2187   1.430       .  S
O1811     Cr1825   1.927   1_655  S
O1812     Cr1825   2.021       .  S
O1812      C1813   1.262       .  A
O1814     Cr1823   2.009       .  S
O1814      C1822   1.268       .  A
O1815     Cr1823   1.995       .  S
O1815      C1816   1.263   1_455  A
C1816      O1817   1.270       .  A
O1817     Cr1824   2.033       .  S
O1818     Cr1824   2.006       .  S
O1818      C1819   1.264       .  A
C1819      O1820   1.263       .  A
O1820     Cr1825   2.012   1_655  S
O1821     Cr1825   1.922       .  S
O1821      C1822   1.252       .  A
C1822      C2671   1.432       .  S
Cr1823     O1826   1.788   1_455  S
Cr1824     O1826   1.792       .  S
Cr1825     O1826   1.786   1_455  S
O1827     Cr1845   2.005       .  S
O1827      C1835   1.267       .  A
O1828     Cr1845   1.999       .  S
O1828      C1829   1.263   1_655  A
C1829      O1830   1.269       .  A
O1830     Cr1846   2.032       .  S
O1831     Cr1846   1.995       .  S
O1831      C1832   1.263       .  A
C1832      O1833   1.265       .  A
O1833     Cr1847   2.029       .  S
O1834     Cr1847   1.925   1_655  S
O1834      C1835   1.253       .  A
C1835      C2379   1.429       .  S
O1836     Cr1845   1.996       .  S
O1836      C1844   1.263       .  A
O1837     Cr1845   2.033       .  S
O1837      C1838   1.270       .  A
C1838      O1839   1.263   1_655  A
O1839     Cr1846   2.000       .  S
O1840     Cr1846   2.002       .  S
O1840      C1841   1.266       .  A
C1841      O1842   1.252       .  A
C1841      C2841   1.427       .  S
O1842     Cr1847   1.923       .  S
O1843     Cr1847   2.030   1_655  S
O1843      C1844   1.265       .  A
Cr1845     O1848   1.785   1_655  S
Cr1846     O1848   1.785       .  S
Cr1847     O1848   1.786       .  S
O1849     Cr1867   2.020   1_556  S
O1849      C1857   1.262       .  A
O1850     Cr1867   1.928   1_556  S
O1850      C1851   1.254       .  A
C1851      O1852   1.268       .  A
C1851      C2225   1.433       .  S
O1852     Cr1868   2.007       .  S
O1853     Cr1868   1.997       .  S
O1853      C1854   1.262       .  A
C1854      O1855   1.269       .  A
O1855     Cr1869   2.028   1_556  S
O1856     Cr1869   1.995   1_556  S
O1856      C1857   1.262       .  A
O1858     Cr1867   1.923       .  S
O1858      C1866   1.252       .  A
O1859     Cr1867   2.008       .  S
O1859      C1860   1.262       .  A
C1860      O1861   1.262       .  A
O1861     Cr1868   1.999   1_554  S
O1862     Cr1868   2.039   1_554  S
O1862      C1863   1.271       .  A
C1863      O1864   1.263       .  A
O1864     Cr1869   1.996       .  S
O1865     Cr1869   2.008       .  S
O1865      C1866   1.268       .  A
C1866      C2775   1.430       .  S
Cr1867     O1870   1.787       .  S
Cr1868     O1870   1.790   1_556  S
Cr1869     O1870   1.786       .  S
O1871     Cr1889   1.992       .  S
O1871      C1879   1.261       .  A
O1872     Cr1889   2.029       .  S
O1872      C1873   1.269       .  A
C1873      O1874   1.263       .  A
O1874     Cr1890   1.999       .  S
O1875     Cr1890   2.000       .  S
O1875      C1876   1.266       .  A
C1876      O1877   1.253       .  A
C1876      C2825   1.426       .  S
O1877     Cr1891   1.924       .  S
O1878     Cr1891   2.020       .  S
O1878      C1879   1.262       .  A
O1880     Cr1889   2.006       .  S
O1880      C1888   1.268       .  A
O1881     Cr1889   1.992       .  S
O1881      C1882   1.262       .  A
C1882      O1883   1.270       .  A
O1883     Cr1890   2.032       .  S
O1884     Cr1890   2.004       .  S
O1884      C1885   1.264       .  A
C1885      O1886   1.262       .  A
O1886     Cr1891   2.010       .  S
O1887     Cr1891   1.919       .  S
O1887      C1888   1.251       .  A
C1888      C2363   1.427       .  S
Cr1889     O1892   1.786       .  S
Cr1890     O1892   1.789       .  S
Cr1891     O1892   1.786       .  S
O1893     Cr1911   2.029       .  S
O1893      C1901   1.269       .  A
O1894     Cr1911   1.995       .  S
O1894      C1895   1.262       .  A
C1895      O1896   1.262       .  A
O1896     Cr1912   2.020       .  S
O1897     Cr1912   1.925       .  S
O1897      C1898   1.253       .  A
C1898      O1899   1.267       .  A
C1898      C2709   1.429       .  S
O1899     Cr1913   2.004       .  S
O1900     Cr1913   1.998       .  S
O1900      C1901   1.263       .  A
O1902     Cr1911   1.997       .  S
O1902      C1910   1.263       .  A
O1903     Cr1911   2.007       .  S
O1903      C1904   1.268       .  A
C1904      O1905   1.251       .  A
C1904      C2313   1.428       .  S
O1905     Cr1912   1.919       .  S
O1906     Cr1912   2.010       .  S
O1906      C1907   1.263       .  A
C1907      O1908   1.263       .  A
O1908     Cr1913   2.001       .  S
O1909     Cr1913   2.037       .  S
O1909      C1910   1.271       .  A
Cr1911     O1914   1.786       .  S
Cr1912     O1914   1.786       .  S
Cr1913     O1914   1.790       .  S
O1915     Cr1933   2.006       .  S
O1915      C1923   1.268       .  A
O1916     Cr1933   1.999       .  S
O1916      C1917   1.264   1_545  A
C1917      O1918   1.270       .  A
O1918     Cr1934   2.030       .  S
O1919     Cr1934   2.008       .  S
O1919      C1920   1.264       .  A
C1920      O1921   1.261       .  A
O1921     Cr1935   2.008   1_565  S
O1922     Cr1935   1.921       .  S
O1922      C1923   1.252       .  A
C1923      C2401   1.429       .  S
O1924     Cr1933   2.008       .  S
O1924      C1932   1.264       .  A
O1925     Cr1933   2.033       .  S
O1925      C1926   1.270       .  A
C1926      O1927   1.263   1_545  A
C1926      C2897   1.506       .  S
O1927     Cr1934   1.998       .  S
O1928     Cr1934   2.003       .  S
O1928      C1929   1.267       .  A
C1929      O1930   1.251   1_565  A
C1929      C2797   1.426       .  S
O1930     Cr1935   1.920       .  S
O1931     Cr1935   2.009       .  S
O1931      C1932   1.261       .  A
Cr1933     O1936   1.793       .  S
Cr1934     O1936   1.793   1_565  S
Cr1935     O1936   1.784       .  S
O1937     Cr1955   2.008       .  S
O1937      C1945   1.261       .  A
O1938     Cr1955   1.923       .  S
O1938      C1939   1.252   1_545  A
C1939      O1940   1.268       .  A
C1939      C2643   1.432       .  S
O1940     Cr1956   2.008       .  S
O1941     Cr1956   2.000       .  S
O1941      C1942   1.264   1_565  A
C1942      O1943   1.269       .  A
O1943     Cr1957   2.030   1_554  S
O1944     Cr1957   2.006   1_554  S
O1944      C1945   1.263       .  A
C1945      C2982   1.488       .  S
O1946     Cr1955   1.921   1_556  S
O1946      C1954   1.251       .  A
O1947     Cr1955   2.008   1_566  S
O1947      C1948   1.261       .  A
C1948      O1949   1.264       .  A
O1949     Cr1956   2.008   1_556  S
O1950     Cr1956   2.034   1_556  S
O1950      C1951   1.270       .  A
C1951      O1952   1.263   1_565  A
O1952     Cr1957   1.999       .  S
O1953     Cr1957   2.003       .  S
O1953      C1954   1.267       .  A
C1954      C2247   1.427       .  S
Cr1955     O1958   1.786       .  S
Cr1956     O1958   1.792   1_565  S
Cr1957     O1958   1.794   1_556  S
O1959     Cr1977   1.922   1_556  S
O1959      C1967   1.252       .  A
O1960     Cr1977   2.010   1_566  S
O1960      C1961   1.263       .  A
C1961      O1962   1.263       .  A
O1962     Cr1978   1.998   1_556  S
O1963     Cr1978   2.036   1_556  S
O1963      C1964   1.271       .  A
C1964      O1965   1.262   1_565  A
O1965     Cr1979   1.995       .  S
O1966     Cr1979   2.006       .  S
O1966      C1967   1.267       .  A
C1967      C2297   1.429       .  S
O1968     Cr1977   2.021       .  S
O1968      C1976   1.262       .  A
O1969     Cr1977   1.927       .  S
O1969      C1970   1.254   1_545  A
C1970      O1971   1.267       .  A
C1970      C2759   1.430       .  S
O1971     Cr1978   2.004       .  S
O1972     Cr1978   1.995       .  S
O1972      C1973   1.262   1_565  A
C1973      O1974   1.269       .  A
O1974     Cr1979   2.028   1_554  S
O1975     Cr1979   1.994   1_554  S
O1975      C1976   1.262       .  A
Cr1977     O1980   1.785       .  S
Cr1978     O1980   1.789   1_565  S
Cr1979     O1980   1.786   1_556  S
O1981     Cr1999   1.993   1_556  S
O1981      C1989   1.261       .  A
O1982     Cr1999   2.029   1_556  S
O1982      C1983   1.269       .  A
C1983      O1984   1.263       .  A
O1984     Cr2000   1.998       .  S
O1985     Cr2000   2.003       .  S
O1985      C1986   1.267       .  A
C1986      O1987   1.254       .  A
C1986      C2209   1.430       .  S
O1987     Cr2001   1.928   1_556  S
O1988     Cr2001   2.020   1_556  S
O1988      C1989   1.262       .  A
O1990     Cr1999   2.008       .  S
O1990      C1998   1.268       .  A
O1991     Cr1999   1.993       .  S
O1991      C1992   1.262       .  A
C1992      O1993   1.271       .  A
O1993     Cr2000   2.034   1_554  S
O1994     Cr2000   2.002   1_554  S
O1994      C1995   1.263       .  A
C1995      O1996   1.262       .  A
O1996     Cr2001   2.009       .  S
O1997     Cr2001   1.922       .  S
O1997      C1998   1.252       .  A
C1998      C2630   1.430       .  S
Cr1999     O2002   1.786       .  S
Cr2000     O2002   1.789   1_556  S
Cr2001     O2002   1.786       .  S
O2003     Cr2021   1.950       .  S
O2003      C2011   1.257   1_545  A
O2004     Cr2021   1.974       .  S
O2004      C2005   1.256       .  A
C2005      O2006   1.251       .  A
C2005      C2080   1.419       .  S
O2006     Cr2022   1.938       .  S
O2007     Cr2022   2.022       .  S
O2007      C2008   1.267       .  A
C2008      O2009   1.255       .  A
C2008      C2055   1.459       .  S
O2009     Cr2023   1.944       .  S
O2010     Cr2023   2.014       .  S
O2010      C2011   1.267   1_545  A
C2011      C2033   1.455       .  S
O2012     Cr2021   1.976       .  S
O2012      C2020   1.256       .  A
O2013     Cr2021   1.954       .  S
O2013      C2014   1.258       .  A
C2014      O2015   1.269       .  A
O2015     Cr2022   2.025       .  S
O2016     Cr2022   1.924       .  S
O2016      C2017   1.251       .  A
C2017      O2018   1.265       .  A
C2017      C2237   1.442       .  S
O2018     Cr2023   2.010       .  S
O2019     Cr2023   1.955       .  S
O2019      C2020   1.254       .  A
C2020      C2303   1.431       .  S
Cr2021     O2024   1.765       .  S
Cr2022     O2024   1.769       .  S
Cr2023     O2024   1.769       .  S
O2025     Cr2043   2.014   1_455  S
O2025      C2033   1.267       .  A
O2026     Cr2043   1.958       .  S
O2026      C2027   1.255       .  A
C2027      O2028   1.264       .  A
C2027      C2052   1.451       .  S
O2028     Cr2044   2.002       .  S
O2029     Cr2044   1.913       .  S
O2029      C2030   1.248       .  A
C2030      O2031   1.259       .  A
C2030      C2086   1.421       .  S
O2031     Cr2045   1.986       .  S
O2032     Cr2045   1.949   1_455  S
O2032      C2033   1.257       .  A
O2034     Cr2043   1.955       .  S
O2034      C2042   1.255       .  A
O2035     Cr2043   2.014       .  S
O2035      C2036   1.267       .  A
C2036      O2037   1.251       .  A
C2036      C2215   1.438       .  S
O2037     Cr2044   1.916       .  S
O2038     Cr2044   2.016       .  S
O2038      C2039   1.266       .  A
C2039      O2040   1.257       .  A
O2040     Cr2045   1.955       .  S
O2041     Cr2045   1.978       .  S
O2041      C2042   1.258       .  A
C2042      C2171   1.433       .  S
Cr2043     O2046   1.771       .  S
Cr2044     O2046   1.763       .  S
Cr2045     O2046   1.765       .  S
O2047     Cr2065   2.018   1_455  S
O2047      C2055   1.266       .  A
O2048     Cr2065   1.921       .  S
O2048      C2049   1.249       .  A
C2049      O2050   1.262       .  A
C2049      C2083   1.430       .  S
O2050     Cr2066   1.996       .  S
O2051     Cr2066   1.965       .  S
O2051      C2052   1.259   1_545  A
C2052      O2053   1.264   1_565  A
O2053     Cr2067   1.999       .  S
O2054     Cr2067   1.948       .  S
O2054      C2055   1.256   1_655  A
O2056     Cr2065   1.925       .  S
O2056      C2064   1.250       .  A
O2057     Cr2065   2.017       .  S
O2057      C2058   1.266       .  A
C2058      O2059   1.256       .  A
C2058      C2963   1.463       .  S
O2059     Cr2066   1.956       .  S
O2060     Cr2066   1.983       .  S
O2060      C2061   1.260       .  A
C2061      O2062   1.256       .  A
C2061      C2259   1.433       .  S
O2062     Cr2067   1.952       .  S
O2063     Cr2067   2.008       .  S
O2063      C2064   1.264       .  A
C2064      C2281   1.440       .  S
Cr2065     O2068   1.769       .  S
Cr2066     O2068   1.769       .  S
Cr2067     O2068   1.767       .  S
O2069     Cr2087   1.944       .  S
O2069      C2077   1.254   1_455  A
O2070     Cr2087   1.992   1_545  S
O2070      C2071   1.262       .  A
C2071      O2072   1.253       .  A
C2071      C2127   1.424       .  S
O2072     Cr2088   1.923       .  S
O2073     Cr2088   1.984   1_655  S
O2073      C2074   1.258       .  A
C2074      O2075   1.250       .  A
C2074      C2146   1.420       .  S
O2075     Cr2089   1.921   1_545  S
O2076     Cr2089   1.978       .  S
O2076      C2077   1.258       .  A
C2077      C2102   1.422       .  S
O2078     Cr2087   1.993   1_655  S
O2078      C2086   1.262       .  A
O2079     Cr2087   1.944   1_545  S
O2079      C2080   1.255       .  A
C2080      O2081   1.257       .  A
O2081     Cr2088   1.973       .  S
O2082     Cr2088   1.930       .  S
O2082      C2083   1.253   1_455  A
C2083      O2084   1.260       .  A
O2084     Cr2089   1.994   1_545  S
O2085     Cr2089   1.915       .  S
O2085      C2086   1.252       .  A
Cr2087     O2090   1.767   1_465  S
Cr2088     O2090   1.755   1_455  S
Cr2089     O2090   1.756   1_565  S
O2091     Cr2109   1.922       .  S
O2091      C2099   1.250       .  A
O2092     Cr2109   2.006       .  S
O2092      C2093   1.266       .  A
C2093      O2094   1.258       .  A
O2094     Cr2110   1.963       .  S
O2095     Cr2110   1.980       .  S
O2095      C2096   1.258       .  A
C2096      O2097   1.254       .  A
C2096      C2193   1.432       .  S
O2097     Cr2111   1.951       .  S
O2098     Cr2111   2.011       .  S
O2098      C2099   1.266       .  A
C2099      C2325   1.441       .  S
O2100     Cr2109   2.014       .  S
O2100      C2108   1.265       .  A
O2101     Cr2109   1.941       .  S
O2101      C2102   1.253       .  A
C2102      O2103   1.257       .  A
O2103     Cr2110   1.977       .  S
O2104     Cr2110   1.953   1_455  S
O2104      C2105   1.257       .  A
C2105      O2106   1.266       .  A
C2105      C2124   1.455       .  S
O2106     Cr2111   2.009   1_455  S
O2107     Cr2111   1.948       .  S
O2107      C2108   1.254       .  A
C2108      C2149   1.456       .  S
Cr2109     O2112   1.768       .  S
Cr2110     O2112   1.769       .  S
Cr2111     O2112   1.772       .  S
O2113     Cr2131   2.014       .  S
O2113      C2121   1.267       .  A
O2114     Cr2131   1.953       .  S
O2114      C2115   1.256       .  A
C2115      O2116   1.260       .  A
C2115      C2413   1.435       .  S
O2116     Cr2132   1.981       .  S
O2117     Cr2132   1.965       .  S
O2117      C2118   1.256       .  A
C2118      O2119   1.263       .  A
O2119     Cr2133   2.000       .  S
O2120     Cr2133   1.915       .  S
O2120      C2121   1.250       .  A
C2121      C2369   1.437       .  S
O2122     Cr2131   1.966       .  S
O2122      C2130   1.257       .  A
O2123     Cr2131   2.010       .  S
O2123      C2124   1.266   1_545  A
C2124      O2125   1.257   1_565  A
O2125     Cr2132   1.953       .  S
O2126     Cr2132   1.989       .  S
O2126      C2127   1.261       .  A
C2127      O2128   1.249       .  A
O2128     Cr2133   1.918       .  S
O2129     Cr2133   1.997       .  S
O2129      C2130   1.261       .  A
C2130      C2152   1.451       .  S
Cr2131     O2134   1.773       .  S
Cr2132     O2134   1.770       .  S
Cr2133     O2134   1.763       .  S
O2135     Cr2153   1.978       .  S
O2135      C2143   1.259       .  A
O2136     Cr2153   1.974       .  S
O2136      C2137   1.260       .  A
C2137      O2138   1.265       .  A
O2138     Cr2154   2.008       .  S
O2139     Cr2154   1.911       .  S
O2139      C2140   1.248       .  A
C2140      O2141   1.265       .  A
C2140      C2347   1.434       .  S
O2141     Cr2155   2.010       .  S
O2142     Cr2155   1.950       .  S
O2142      C2143   1.256       .  A
C2143      C2391   1.429       .  S
O2144     Cr2153   1.970   1_455  S
O2144      C2152   1.260       .  A
O2145     Cr2153   1.986       .  S
O2145      C2146   1.260       .  A
C2146      O2147   1.248       .  A
O2147     Cr2154   1.917       .  S
O2148     Cr2154   2.011   1_565  S
O2148      C2149   1.264       .  A
C2149      O2150   1.254   1_565  A
O2150     Cr2155   1.951       .  S
O2151     Cr2155   1.995   1_455  S
O2151      C2152   1.262       .  A
Cr2153     O2156   1.771       .  S
Cr2154     O2156   1.764       .  S
Cr2155     O2156   1.771       .  S
O2157     Cr2175   2.015       .  S
O2157      C2165   1.266       .  A
O2158     Cr2175   1.939       .  S
O2158      C2159   1.248       .  A
C2159      O2160   1.261       .  A
O2160     Cr2176   1.984       .  S
O2161     Cr2176   1.976   1_455  S
O2161      C2162   1.261       .  A
C2162      O2163   1.268       .  A
O2163     Cr2177   2.024   1_455  S
O2164     Cr2177   1.931   1_455  S
O2164      C2165   1.255   1_455  A
O2166     Cr2175   1.937       .  S
O2166      C2174   1.252       .  A
O2167     Cr2175   2.019       .  S
O2167      C2168   1.267       .  A
C2168      O2169   1.257       .  A
C2168      C2218   1.467       .  S
O2169     Cr2176   1.960       .  S
O2170     Cr2176   1.985       .  S
O2170      C2171   1.260       .  A
C2171      O2172   1.257       .  A
O2172     Cr2177   1.950       .  S
O2173     Cr2177   2.021       .  S
O2173      C2174   1.266       .  A
Cr2175     O2178   1.781       .  S
Cr2176     O2178   1.765       .  S
Cr2177     O2178   1.769       .  S
O2179     Cr2197   1.942       .  S
O2179      C2187   1.248       .  A
O2180     Cr2197   2.016       .  S
O2180      C2181   1.267       .  A
C2181      O2182   1.254   1_655  A
O2182     Cr2198   1.927   1_455  S
O2183     Cr2198   2.032   1_455  S
O2183      C2184   1.268       .  A
C2184      O2185   1.261       .  A
O2185     Cr2199   1.983   1_455  S
O2186     Cr2199   1.981       .  S
O2186      C2187   1.260       .  A
O2188     Cr2197   2.026       .  S
O2188      C2196   1.270       .  A
O2189     Cr2197   1.953       .  S
O2189      C2190   1.254       .  A
C2190      O2191   1.267       .  A
O2191     Cr2198   2.016       .  S
O2192     Cr2198   1.943       .  S
O2192      C2193   1.254       .  A
C2193      O2194   1.261       .  A
O2194     Cr2199   1.989       .  S
O2195     Cr2199   1.960       .  S
O2195      C2196   1.258       .  A
C2196      C2322   1.471       .  S
Cr2197     O2200   1.788       .  S
Cr2198     O2200   1.769       .  S
Cr2199     O2200   1.768       .  S
O2201     Cr2219   1.940       .  S
O2201      C2209   1.248       .  A
O2202     Cr2219   2.013       .  S
O2202      C2203   1.266       .  A
C2203      O2204   1.253       .  A
O2204     Cr2220   1.921       .  S
O2205     Cr2220   2.033       .  S
O2205      C2206   1.268       .  A
C2206      O2207   1.260       .  A
O2207     Cr2221   1.980       .  S
O2208     Cr2221   1.983       .  S
O2208      C2209   1.262       .  A
O2210     Cr2219   2.019       .  S
O2210      C2218   1.268       .  A
O2211     Cr2219   1.957       .  S
O2211      C2212   1.254       .  A
C2212      O2213   1.268       .  A
O2213     Cr2220   2.019       .  S
O2214     Cr2220   1.926       .  S
O2214      C2215   1.254       .  A
C2215      O2216   1.262       .  A
O2216     Cr2221   2.003       .  S
O2217     Cr2221   1.960       .  S
O2217      C2218   1.258       .  A
Cr2219     O2222   1.787       .  S
Cr2220     O2222   1.762       .  S
Cr2221     O2222   1.770       .  S
O2223     Cr2241   2.015       .  S
O2223      C2231   1.266       .  A
O2224     Cr2241   1.941       .  S
O2224      C2225   1.249       .  A
C2225      O2226   1.263       .  A
O2226     Cr2242   1.987       .  S
O2227     Cr2242   1.979       .  S
O2227      C2228   1.259       .  A
C2228      O2229   1.268       .  A
O2229     Cr2243   2.034       .  S
O2230     Cr2243   1.923       .  S
O2230      C2231   1.254       .  A
O2232     Cr2241   1.956       .  S
O2232      C2240   1.254       .  A
O2233     Cr2241   2.020       .  S
O2233      C2234   1.268       .  A
C2234      O2235   1.258       .  A
C2234      C2306   1.468       .  S
O2235     Cr2242   1.960       .  S
O2236     Cr2242   2.007       .  S
O2236      C2237   1.264       .  A
C2237      O2238   1.254       .  A
O2238     Cr2243   1.930       .  S
O2239     Cr2243   2.018       .  S
O2239      C2240   1.268       .  A
Cr2241     O2244   1.788       .  S
Cr2242     O2244   1.770       .  S
Cr2243     O2244   1.763       .  S
O2245     Cr2263   2.018       .  S
O2245      C2253   1.267       .  A
O2246     Cr2263   1.934       .  S
O2246      C2247   1.247       .  A
C2247      O2248   1.263       .  A
O2248     Cr2264   1.985       .  S
O2249     Cr2264   1.989   1_565  S
O2249      C2250   1.262       .  A
C2250      O2251   1.267       .  A
O2251     Cr2265   2.018   1_565  S
O2252     Cr2265   1.927       .  S
O2252      C2253   1.253       .  A
O2254     Cr2263   1.937       .  S
O2254      C2262   1.251       .  A
O2255     Cr2263   2.019       .  S
O2255      C2256   1.267       .  A
C2256      O2257   1.259       .  A
C2256      C2284   1.474       .  S
O2257     Cr2264   1.970       .  S
O2258     Cr2264   1.986       .  S
O2258      C2259   1.261       .  A
C2259      O2260   1.256       .  A
O2260     Cr2265   1.948       .  S
O2261     Cr2265   2.021       .  S
O2261      C2262   1.266       .  A
C2262      C2960   1.454       .  S
Cr2263     O2266   1.784       .  S
Cr2264     O2266   1.768       .  S
Cr2265     O2266   1.770       .  S
O2267     Cr2285   1.936       .  S
O2267      C2275   1.248       .  A
O2268     Cr2285   2.020       .  S
O2268      C2269   1.268       .  A
C2269      O2270   1.253   1_655  A
O2270     Cr2286   1.922   1_455  S
O2271     Cr2286   2.014   1_455  S
O2271      C2272   1.264       .  A
C2272      O2273   1.261       .  A
O2273     Cr2287   1.992   1_455  S
O2274     Cr2287   1.987       .  S
O2274      C2275   1.264       .  A
C2275      C2878   1.431       .  S
O2276     Cr2285   2.021       .  S
O2276      C2284   1.268       .  A
O2277     Cr2285   1.954       .  S
O2277      C2278   1.253       .  A
C2278      O2279   1.262       .  A
C2278      C2966   1.448       .  S
O2279     Cr2286   2.004       .  S
O2280     Cr2286   1.931       .  S
O2280      C2281   1.255       .  A
C2281      O2282   1.264       .  A
O2282     Cr2287   2.002       .  S
O2283     Cr2287   1.969       .  S
O2283      C2284   1.259       .  A
Cr2285     O2288   1.788       .  S
Cr2286     O2288   1.764       .  S
Cr2287     O2288   1.772       .  S
O2289     Cr2307   1.938       .  S
O2289      C2297   1.248       .  A
O2290     Cr2307   2.016       .  S
O2290      C2291   1.266       .  A
C2291      O2292   1.255       .  A
O2292     Cr2308   1.930       .  S
O2293     Cr2308   2.015   1_565  S
O2293      C2294   1.266       .  A
C2294      O2295   1.262       .  A
O2295     Cr2309   1.985   1_565  S
O2296     Cr2309   1.983       .  S
O2296      C2297   1.262       .  A
O2298     Cr2307   2.017       .  S
O2298      C2306   1.266       .  A
O2299     Cr2307   1.940       .  S
O2299      C2300   1.252       .  A
C2300      O2301   1.265       .  A
O2301     Cr2308   2.018       .  S
O2302     Cr2308   1.951       .  S
O2302      C2303   1.257       .  A
C2303      O2304   1.259       .  A
O2304     Cr2309   1.982       .  S
O2305     Cr2309   1.963       .  S
O2305      C2306   1.257       .  A
Cr2307     O2310   1.783       .  S
Cr2308     O2310   1.768       .  S
Cr2309     O2310   1.769       .  S
O2311     Cr2329   2.018       .  S
O2311      C2319   1.267       .  A
O2312     Cr2329   1.932       .  S
O2312      C2313   1.248       .  A
C2313      O2314   1.265       .  A
O2314     Cr2330   1.989       .  S
O2315     Cr2330   1.990       .  S
O2315      C2316   1.262       .  A
C2316      O2317   1.266       .  A
O2317     Cr2331   2.016       .  S
O2318     Cr2331   1.924       .  S
O2318      C2319   1.253       .  A
O2320     Cr2329   1.942       .  S
O2320      C2328   1.252       .  A
O2321     Cr2329   2.014       .  S
O2321      C2322   1.265       .  A
C2322      O2323   1.259       .  A
O2323     Cr2330   1.970       .  S
O2324     Cr2330   2.001       .  S
O2324      C2325   1.263       .  A
C2325      O2326   1.256       .  A
O2326     Cr2331   1.934       .  S
O2327     Cr2331   2.019       .  S
O2327      C2328   1.265       .  A
Cr2329     O2332   1.784       .  S
Cr2330     O2332   1.771       .  S
Cr2331     O2332   1.763       .  S
O2333     Cr2351   1.935       .  S
O2333      C2341   1.248       .  A
O2334     Cr2351   2.017       .  S
O2334      C2335   1.267       .  A
C2335      O2336   1.253       .  A
O2336     Cr2352   1.919       .  S
O2337     Cr2352   2.031   1_565  S
O2337      C2338   1.268       .  A
C2338      O2339   1.260       .  A
O2339     Cr2353   1.977   1_565  S
O2340     Cr2353   1.984       .  S
O2340      C2341   1.262       .  A
C2341      C2438   1.426       .  S
O2342     Cr2351   2.018       .  S
O2342      C2350   1.267       .  A
O2343     Cr2351   1.944       .  S
O2343      C2344   1.253       .  A
C2344      O2345   1.267       .  A
O2345     Cr2352   2.027       .  S
O2346     Cr2352   1.924       .  S
O2346      C2347   1.254       .  A
C2347      O2348   1.262       .  A
O2348     Cr2353   1.999       .  S
O2349     Cr2353   1.963       .  S
O2349      C2350   1.259       .  A
C2350      C2388   1.468       .  S
Cr2351     O2354   1.779       .  S
Cr2352     O2354   1.763       .  S
Cr2353     O2354   1.766       .  S
O2355     Cr2373   1.932       .  S
O2355      C2363   1.248       .  A
O2356     Cr2373   2.022       .  S
O2356      C2357   1.268       .  A
C2357      O2358   1.253       .  A
O2358     Cr2374   1.923       .  S
O2359     Cr2374   2.018       .  S
O2359      C2360   1.266       .  A
C2360      O2361   1.262       .  A
O2361     Cr2375   1.989       .  S
O2362     Cr2375   1.987       .  S
O2362      C2363   1.264       .  A
O2364     Cr2373   2.017       .  S
O2364      C2372   1.266       .  A
O2365     Cr2373   1.943       .  S
O2365      C2366   1.252       .  A
C2366      O2367   1.265       .  A
O2367     Cr2374   2.020       .  S
O2368     Cr2374   1.930       .  S
O2368      C2369   1.255       .  A
C2369      O2370   1.262       .  A
O2370     Cr2375   1.998       .  S
O2371     Cr2375   1.969       .  S
O2371      C2372   1.259       .  A
C2372      C2410   1.472       .  S
Cr2373     O2376   1.782       .  S
Cr2374     O2376   1.763       .  S
Cr2375     O2376   1.772       .  S
O2377     Cr2395   2.012       .  S
O2377      C2385   1.266       .  A
O2378     Cr2395   1.943       .  S
O2378      C2379   1.248       .  A
C2379      O2380   1.260       .  A
O2380     Cr2396   1.979       .  S
O2381     Cr2396   1.984   1_455  S
O2381      C2382   1.262       .  A
C2382      O2383   1.266       .  A
O2383     Cr2397   2.025   1_455  S
O2384     Cr2397   1.927   1_455  S
O2384      C2385   1.255   1_455  A
O2386     Cr2395   1.952       .  S
O2386      C2394   1.253       .  A
O2387     Cr2395   2.021       .  S
O2387      C2388   1.268       .  A
C2388      O2389   1.258       .  A
O2389     Cr2396   1.960       .  S
O2390     Cr2396   1.986       .  S
O2390      C2391   1.261       .  A
C2391      O2392   1.255       .  A
O2392     Cr2397   1.941       .  S
O2393     Cr2397   2.008       .  S
O2393      C2394   1.265       .  A
Cr2395     O2398   1.788       .  S
Cr2396     O2398   1.767       .  S
Cr2397     O2398   1.767       .  S
O2399     Cr2417   2.014       .  S
O2399      C2407   1.266       .  A
O2400     Cr2417   1.940       .  S
O2400      C2401   1.248       .  A
C2401      O2402   1.261       .  A
O2402     Cr2418   1.981       .  S
O2403     Cr2418   1.993   1_565  S
O2403      C2404   1.262       .  A
C2404      O2405   1.266       .  A
O2405     Cr2419   2.018   1_565  S
O2406     Cr2419   1.927       .  S
O2406      C2407   1.254       .  A
O2408     Cr2417   1.954       .  S
O2408      C2416   1.253       .  A
O2409     Cr2417   2.022       .  S
O2409      C2410   1.268       .  A
C2410      O2411   1.259       .  A
O2411     Cr2418   1.966       .  S
O2412     Cr2418   1.987       .  S
O2412      C2413   1.261       .  A
C2413      O2414   1.256       .  A
O2414     Cr2419   1.947       .  S
O2415     Cr2419   2.010       .  S
O2415      C2416   1.265       .  A
Cr2417     O2420   1.792       .  S
Cr2418     O2420   1.773       .  S
Cr2419     O2420   1.769       .  S
O2421     Cr2439   2.005       .  S
O2421      C2429   1.264       .  A
O2422     Cr2439   2.035       .  S
O2422      C2423   1.271       .  A
C2423      O2424   1.263   1_545  A
O2424     Cr2440   1.997       .  S
O2425     Cr2440   2.004       .  S
O2425      C2426   1.267       .  A
C2426      O2427   1.251   1_565  A
C2426      C2693   1.425       .  S
O2427     Cr2441   1.918       .  S
O2428     Cr2441   2.013       .  S
O2428      C2429   1.263       .  A
O2430     Cr2439   2.002       .  S
O2430      C2438   1.267       .  A
O2431     Cr2439   2.000       .  S
O2431      C2432   1.263   1_545  A
C2432      O2433   1.268       .  A
O2433     Cr2440   2.028       .  S
O2434     Cr2440   1.997       .  S
O2434      C2435   1.262       .  A
C2435      O2436   1.263       .  A
O2436     Cr2441   2.023   1_565  S
O2437     Cr2441   1.923       .  S
O2437      C2438   1.253       .  A
Cr2439     O2442   1.789       .  S
Cr2440     O2442   1.787   1_565  S
Cr2441     O2442   1.785       .  S
O2443     Cr2461   1.946   1_545  S
O2443      C2451   1.255       .  A
O2444     Cr2461   2.011       .  S
O2444      C2445   1.267       .  A
C2445      O2446   1.256       .  A
C2445      C2586   1.450       .  S
O2446     Cr2462   1.945       .  S
O2447     Cr2462   1.976       .  S
O2447      C2448   1.256       .  A
C2448      O2449   1.251       .  A
C2448      C2495   1.419       .  S
O2449     Cr2463   1.937       .  S
O2450     Cr2463   2.019   1_545  S
O2450      C2451   1.267       .  A
C2451      C2561   1.459       .  S
O2452     Cr2461   2.006       .  S
O2452      C2460   1.265       .  A
O2453     Cr2461   1.957       .  S
O2453      C2454   1.255       .  A
C2454      O2455   1.257       .  A
C2454      C2624   1.434       .  S
O2455     Cr2462   1.978       .  S
O2456     Cr2462   1.948       .  S
O2456      C2457   1.256       .  A
C2457      O2458   1.269       .  A
O2458     Cr2463   2.022       .  S
O2459     Cr2463   1.923       .  S
O2459      C2460   1.251       .  A
C2460      C2655   1.439       .  S
Cr2461     O2464   1.768       .  S
Cr2462     O2464   1.763       .  S
Cr2463     O2464   1.770       .  S
O2465     Cr2483   1.949   1_545  S
O2465      C2473   1.257       .  A
O2466     Cr2483   1.971       .  S
O2466      C2467   1.255       .  A
C2467      O2468   1.250       .  A
C2467      C2504   1.413       .  S
O2468     Cr2484   1.934       .  S
O2469     Cr2484   2.019       .  S
O2469      C2470   1.266       .  A
C2470      O2471   1.255       .  A
C2470      C2533   1.457       .  S
O2471     Cr2485   1.944       .  S
O2472     Cr2485   2.013   1_545  S
O2472      C2473   1.267       .  A
C2473      C2517   1.453       .  S
O2474     Cr2483   1.973   1_545  S
O2474      C2482   1.255   1_545  A
O2475     Cr2483   1.954       .  S
O2475      C2476   1.258       .  A
C2476      O2477   1.269       .  A
O2477     Cr2484   2.024       .  S
O2478     Cr2484   1.918       .  S
O2478      C2479   1.251       .  A
C2479      O2480   1.265       .  A
C2479      C2721   1.439       .  S
O2480     Cr2485   2.010       .  S
O2481     Cr2485   1.954       .  S
O2481      C2482   1.254       .  A
C2482      C2699   1.429       .  S
Cr2483     O2486   1.763       .  S
Cr2484     O2486   1.769       .  S
Cr2485     O2486   1.769       .  S
O2487     Cr2505   1.944       .  S
O2487      C2495   1.256       .  A
O2488     Cr2505   1.986   1_455  S
O2488      C2489   1.258       .  A
C2489      O2490   1.251   1_565  A
C2489      C2589   1.421       .  S
O2490     Cr2506   1.921       .  S
O2491     Cr2506   1.996       .  S
O2491      C2492   1.262       .  A
C2492      O2493   1.253   1_455  A
C2492      C2555   1.432       .  S
O2493     Cr2507   1.929       .  S
O2494     Cr2507   1.977   1_565  S
O2494      C2495   1.258       .  A
O2496     Cr2505   1.972       .  S
O2496      C2504   1.257       .  A
O2497     Cr2505   1.933       .  S
O2497      C2498   1.254   1_655  A
C2498      O2499   1.261       .  A
C2498      C2536   1.434       .  S
O2499     Cr2506   1.996   1_565  S
O2500     Cr2506   1.921       .  S
O2500      C2501   1.251       .  A
C2501      O2502   1.259       .  A
C2501      C2514   1.423       .  S
O2502     Cr2507   1.989   1_455  S
O2503     Cr2507   1.940       .  S
O2503      C2504   1.255   1_545  A
Cr2505     O2508   1.762   1_565  S
Cr2506     O2508   1.759   1_455  S
Cr2507     O2508   1.762       .  S
O2509     Cr2527   2.012   1_655  S
O2509      C2517   1.267       .  A
O2510     Cr2527   1.957       .  S
O2510      C2511   1.255       .  A
C2511      O2512   1.263       .  A
C2511      C2539   1.449       .  S
O2512     Cr2528   2.000       .  S
O2513     Cr2528   1.916       .  S
O2513      C2514   1.248       .  A
C2514      O2515   1.260       .  A
O2515     Cr2529   1.988       .  S
O2516     Cr2529   1.949   1_655  S
O2516      C2517   1.257       .  A
O2518     Cr2527   1.955       .  S
O2518      C2526   1.256       .  A
O2519     Cr2527   2.013       .  S
O2519      C2520   1.266       .  A
C2520      O2521   1.250       .  A
C2520      C2831   1.436       .  S
O2521     Cr2528   1.914       .  S
O2522     Cr2528   2.016       .  S
O2522      C2523   1.266       .  A
C2523      O2524   1.257       .  A
O2524     Cr2529   1.957       .  S
O2525     Cr2529   1.979       .  S
O2525      C2526   1.258       .  A
C2526      C2853   1.433       .  S
Cr2527     O2530   1.772       .  S
Cr2528     O2530   1.763       .  S
Cr2529     O2530   1.763       .  S
O2531     Cr2549   1.997   1_545  S
O2531      C2539   1.263       .  A
O2532     Cr2549   1.945       .  S
O2532      C2533   1.255   1_455  A
C2533      O2534   1.266       .  A
O2534     Cr2550   2.019   1_655  S
O2535     Cr2550   1.924       .  S
O2535      C2536   1.250       .  A
C2536      O2537   1.263       .  A
O2537     Cr2551   2.000       .  S
O2538     Cr2551   1.964   1_545  S
O2538      C2539   1.259       .  A
O2540     Cr2549   1.950       .  S
O2540      C2548   1.255       .  A
O2541     Cr2549   2.006       .  S
O2541      C2542   1.263       .  A
C2542      O2543   1.250       .  A
C2542      C2677   1.439       .  S
O2543     Cr2550   1.925       .  S
O2544     Cr2550   2.018       .  S
O2544      C2545   1.266       .  A
C2545      O2546   1.256       .  A
O2546     Cr2551   1.957       .  S
O2547     Cr2551   1.984   1_545  S
O2547      C2548   1.260   1_545  A
C2548      C2809   1.432       .  S
Cr2549     O2552   1.768       .  S
Cr2550     O2552   1.767       .  S
Cr2551     O2552   1.769       .  S
O2553     Cr2571   2.019   1_655  S
O2553      C2561   1.267       .  A
O2554     Cr2571   1.924       .  S
O2554      C2555   1.250       .  A
C2555      O2556   1.262       .  A
O2556     Cr2572   1.997       .  S
O2557     Cr2572   1.964       .  S
O2557      C2558   1.259       .  A
C2558      O2559   1.264       .  A
C2558      C2592   1.449       .  S
O2559     Cr2573   1.998       .  S
O2560     Cr2573   1.947       .  S
O2560      C2561   1.256   1_455  A
O2562     Cr2571   1.926       .  S
O2562      C2570   1.250       .  A
O2563     Cr2571   2.018       .  S
O2563      C2564   1.267       .  A
C2564      O2565   1.256       .  A
O2565     Cr2572   1.955       .  S
O2566     Cr2572   1.983       .  S
O2566      C2567   1.260       .  A
C2567      O2568   1.256       .  A
C2567      C2787   1.434       .  S
O2568     Cr2573   1.953       .  S
O2569     Cr2573   2.006       .  S
O2569      C2570   1.263       .  A
C2570      C2743   1.440       .  S
Cr2571     O2574   1.768       .  S
Cr2572     O2574   1.770       .  S
Cr2573     O2574   1.768       .  S
O2575     Cr2593   2.012       .  S
O2575      C2583   1.266       .  A
O2576     Cr2593   1.955       .  S
O2576      C2577   1.256       .  A
C2577      O2578   1.259       .  A
C2577      C2611   1.434       .  S
O2578     Cr2594   1.979       .  S
O2579     Cr2594   1.956       .  S
O2579      C2580   1.256       .  A
C2580      O2581   1.266       .  A
O2581     Cr2595   2.016       .  S
O2582     Cr2595   1.913       .  S
O2582      C2583   1.250       .  A
C2583      C2765   1.435       .  S
O2584     Cr2593   1.958   1_545  S
O2584      C2592   1.255       .  A
O2585     Cr2593   2.010   1_655  S
O2585      C2586   1.266       .  A
C2586      O2587   1.256       .  A
O2587     Cr2594   1.946   1_655  S
O2588     Cr2594   1.989       .  S
O2588      C2589   1.260       .  A
C2589      O2590   1.247       .  A
O2590     Cr2595   1.914       .  S
O2591     Cr2595   2.001   1_545  S
O2591      C2592   1.263       .  A
Cr2593     O2596   1.772       .  S
Cr2594     O2596   1.763       .  S
Cr2595     O2596   1.762       .  S
O2597     Cr2615   2.014       .  S
O2597      C2605   1.266       .  A
O2598     Cr2615   1.940       .  S
O2598      C2599   1.248       .  A
C2599      O2600   1.261       .  A
O2600     Cr2616   1.984       .  S
O2601     Cr2616   1.977   1_655  S
O2601      C2602   1.261       .  A
C2602      O2603   1.269       .  A
O2603     Cr2617   2.033   1_655  S
O2604     Cr2617   1.929   1_655  S
O2604      C2605   1.254   1_655  A
O2606     Cr2615   1.941       .  S
O2606      C2614   1.252       .  A
O2607     Cr2615   2.018       .  S
O2607      C2608   1.267       .  A
C2608      O2609   1.258       .  A
C2608      C2768   1.468       .  S
O2609     Cr2616   1.962       .  S
O2610     Cr2616   1.987       .  S
O2610      C2611   1.261       .  A
C2611      O2612   1.256       .  A
O2612     Cr2617   1.948       .  S
O2613     Cr2617   2.031       .  S
O2613      C2614   1.269       .  A
Cr2615     O2618   1.782       .  S
Cr2616     O2618   1.765       .  S
Cr2617     O2618   1.769       .  S
O2619     Cr2637   1.942       .  S
O2619      C2627   1.252       .  A
O2620     Cr2637   2.019       .  S
O2620      C2621   1.267       .  A
C2621      O2622   1.258       .  A
C2621      C2652   1.473       .  S
O2622     Cr2638   1.968       .  S
O2623     Cr2638   1.984       .  S
O2623      C2624   1.260       .  A
C2624      O2625   1.257       .  A
O2625     Cr2639   1.952       .  S
O2626     Cr2639   2.020       .  S
O2626      C2627   1.265       .  A
O2628     Cr2637   2.019       .  S
O2628      C2636   1.267       .  A
O2629     Cr2637   1.939       .  S
O2629      C2630   1.248       .  A
C2630      O2631   1.262       .  A
O2631     Cr2638   1.985       .  S
O2632     Cr2638   1.988       .  S
O2632      C2633   1.262       .  A
C2633      O2634   1.266       .  A
O2634     Cr2639   2.016       .  S
O2635     Cr2639   1.933       .  S
O2635      C2636   1.255       .  A
Cr2637     O2640   1.784       .  S
Cr2638     O2640   1.771       .  S
Cr2639     O2640   1.770       .  S
O2641     Cr2659   2.017       .  S
O2641      C2649   1.267   1_565  A
O2642     Cr2659   1.939       .  S
O2642      C2643   1.248       .  A
C2643      O2644   1.263       .  A
O2644     Cr2660   1.986       .  S
O2645     Cr2660   1.991   1_545  S
O2645      C2646   1.261       .  A
C2646      O2647   1.266       .  A
C2646      C2985   1.483       .  S
O2647     Cr2661   2.019       .  S
O2648     Cr2661   1.919       .  S
O2648      C2649   1.252       .  A
O2650     Cr2659   1.958       .  S
O2650      C2658   1.254       .  A
O2651     Cr2659   2.020       .  S
O2651      C2652   1.268       .  A
C2652      O2653   1.259       .  A
O2653     Cr2660   1.968       .  S
O2654     Cr2660   2.001       .  S
O2654      C2655   1.263       .  A
C2655      O2656   1.255       .  A
O2656     Cr2661   1.930   1_565  S
O2657     Cr2661   2.011   1_565  S
O2657      C2658   1.265       .  A
Cr2659     O2662   1.790       .  S
Cr2660     O2662   1.773       .  S
Cr2661     O2662   1.764   1_545  S
O2663     Cr2681   1.938       .  S
O2663      C2671   1.248       .  A
O2664     Cr2681   2.020       .  S
O2664      C2665   1.268       .  A
C2665      O2666   1.253   1_455  A
O2666     Cr2682   1.922   1_655  S
O2667     Cr2682   2.013   1_655  S
O2667      C2668   1.264       .  A
C2668      O2669   1.261       .  A
O2669     Cr2683   1.992   1_655  S
O2670     Cr2683   1.986       .  S
O2670      C2671   1.264       .  A
O2672     Cr2681   2.021       .  S
O2672      C2680   1.268       .  A
O2673     Cr2681   1.957       .  S
O2673      C2674   1.254       .  A
C2674      O2675   1.263       .  A
O2675     Cr2682   2.005       .  S
O2676     Cr2682   1.930       .  S
O2676      C2677   1.255       .  A
C2677      O2678   1.264       .  A
O2678     Cr2683   2.002       .  S
O2679     Cr2683   1.970       .  S
O2679      C2680   1.259       .  A
C2680      C2806   1.475       .  S
Cr2681     O2684   1.788       .  S
Cr2682     O2684   1.764       .  S
Cr2683     O2684   1.773       .  S
O2685     Cr2703   1.936       .  S
O2685      C2693   1.248       .  A
O2686     Cr2703   2.016       .  S
O2686      C2687   1.266   1_565  A
C2687      O2688   1.255       .  A
O2688     Cr2704   1.928       .  S
O2689     Cr2704   2.016       .  S
O2689      C2690   1.267       .  A
C2690      O2691   1.263       .  A
O2691     Cr2705   1.990   1_545  S
O2692     Cr2705   1.981       .  S
O2692      C2693   1.261       .  A
O2694     Cr2703   2.016       .  S
O2694      C2702   1.266       .  A
O2695     Cr2703   1.940       .  S
O2695      C2696   1.252       .  A
C2696      O2697   1.265       .  A
O2697     Cr2704   2.020   1_565  S
O2698     Cr2704   1.948   1_565  S
O2698      C2699   1.257       .  A
C2699      O2700   1.259       .  A
O2700     Cr2705   1.980       .  S
O2701     Cr2705   1.966       .  S
O2701      C2702   1.258       .  A
C2702      C2718   1.470       .  S
Cr2703     O2706   1.783       .  S
Cr2704     O2706   1.768   1_545  S
Cr2705     O2706   1.770       .  S
O2707     Cr2725   2.017       .  S
O2707      C2715   1.267       .  A
O2708     Cr2725   1.938       .  S
O2708      C2709   1.248       .  A
C2709      O2710   1.262       .  A
O2710     Cr2726   1.983       .  S
O2711     Cr2726   1.982       .  S
O2711      C2712   1.260       .  A
C2712      O2713   1.268       .  A
O2713     Cr2727   2.033       .  S
O2714     Cr2727   1.922       .  S
O2714      C2715   1.253       .  A
O2716     Cr2725   1.956       .  S
O2716      C2724   1.254       .  A
O2717     Cr2725   2.022       .  S
O2717      C2718   1.269       .  A
C2718      O2719   1.259       .  A
O2719     Cr2726   1.962       .  S
O2720     Cr2726   2.003       .  S
O2720      C2721   1.263       .  A
C2721      O2722   1.254       .  A
O2722     Cr2727   1.927       .  S
O2723     Cr2727   2.019       .  S
O2723      C2724   1.268       .  A
Cr2725     O2728   1.787       .  S
Cr2726     O2728   1.770       .  S
Cr2727     O2728   1.762       .  S
O2729     Cr2747   1.941       .  S
O2729      C2737   1.248       .  A
O2730     Cr2747   2.017       .  S
O2730      C2731   1.267       .  A
C2731      O2732   1.253   1_455  A
O2732     Cr2748   1.922   1_655  S
O2733     Cr2748   2.031   1_655  S
O2733      C2734   1.267       .  A
C2734      O2735   1.259       .  A
C2734      C2976   1.486       .  S
O2735     Cr2749   1.980   1_655  S
O2736     Cr2749   1.986       .  S
O2736      C2737   1.263       .  A
C2737      C2866   1.433       .  S
O2738     Cr2747   2.023       .  S
O2738      C2746   1.269       .  A
O2739     Cr2747   1.957       .  S
O2739      C2740   1.254       .  A
C2740      O2741   1.266       .  A
O2741     Cr2748   2.014       .  S
O2742     Cr2748   1.930       .  S
O2742      C2743   1.254       .  A
C2743      O2744   1.264       .  A
O2744     Cr2749   2.004       .  S
O2745     Cr2749   1.963       .  S
O2745      C2746   1.258       .  A
C2746      C2784   1.471       .  S
Cr2747     O2750   1.787       .  S
Cr2748     O2750   1.764       .  S
Cr2749     O2750   1.769       .  S
O2751     Cr2769   1.941       .  S
O2751      C2759   1.249       .  A
O2752     Cr2769   2.016       .  S
O2752      C2753   1.267   1_565  A
C2753      O2754   1.254       .  A
O2754     Cr2770   1.922       .  S
O2755     Cr2770   2.027       .  S
O2755      C2756   1.266       .  A
C2756      O2757   1.260       .  A
O2757     Cr2771   1.979   1_545  S
O2758     Cr2771   1.983       .  S
O2758      C2759   1.262       .  A
O2760     Cr2769   2.020       .  S
O2760      C2768   1.268       .  A
O2761     Cr2769   1.958       .  S
O2761      C2762   1.254       .  A
C2762      O2763   1.266       .  A
O2763     Cr2770   2.014   1_565  S
O2764     Cr2770   1.922   1_565  S
O2764      C2765   1.254       .  A
C2765      O2766   1.262       .  A
O2766     Cr2771   2.001       .  S
O2767     Cr2771   1.961       .  S
O2767      C2768   1.258       .  A
Cr2769     O2772   1.785       .  S
Cr2770     O2772   1.762   1_545  S
Cr2771     O2772   1.770       .  S
O2773     Cr2791   2.014       .  S
O2773      C2781   1.266       .  A
O2774     Cr2791   1.938       .  S
O2774      C2775   1.248       .  A
C2775      O2776   1.263       .  A
O2776     Cr2792   1.986       .  S
O2777     Cr2792   1.989       .  S
O2777      C2778   1.262       .  A
C2778      O2779   1.266       .  A
O2779     Cr2793   2.015       .  S
O2780     Cr2793   1.930       .  S
O2780      C2781   1.254       .  A
O2782     Cr2791   1.941       .  S
O2782      C2790   1.252       .  A
O2783     Cr2791   2.015       .  S
O2783      C2784   1.265       .  A
C2784      O2785   1.258       .  A
O2785     Cr2792   1.968       .  S
O2786     Cr2792   1.985       .  S
O2786      C2787   1.261       .  A
C2787      O2788   1.257       .  A
O2788     Cr2793   1.950       .  S
O2789     Cr2793   2.019       .  S
O2789      C2790   1.265       .  A
Cr2791     O2794   1.784       .  S
Cr2792     O2794   1.769       .  S
Cr2793     O2794   1.769       .  S
O2795     Cr2813   2.020       .  S
O2795      C2803   1.267   1_565  A
O2796     Cr2813   1.932       .  S
O2796      C2797   1.247       .  A
C2797      O2798   1.263       .  A
O2798     Cr2814   1.985       .  S
O2799     Cr2814   1.990   1_545  S
O2799      C2800   1.262       .  A
C2800      O2801   1.267       .  A
O2801     Cr2815   2.018       .  S
O2802     Cr2815   1.926       .  S
O2802      C2803   1.253       .  A
C2803      C2894   1.451       .  S
O2804     Cr2813   1.937       .  S
O2804      C2812   1.250       .  A
O2805     Cr2813   2.020       .  S
O2805      C2806   1.267       .  A
C2806      O2807   1.259       .  A
O2807     Cr2814   1.971       .  S
O2808     Cr2814   1.986       .  S
O2808      C2809   1.261       .  A
C2809      O2810   1.256       .  A
O2810     Cr2815   1.947   1_565  S
O2811     Cr2815   2.021   1_565  S
O2811      C2812   1.266       .  A
Cr2813     O2816   1.784       .  S
Cr2814     O2816   1.768       .  S
Cr2815     O2816   1.769   1_545  S
O2817     Cr2835   1.936       .  S
O2817      C2825   1.247       .  A
O2818     Cr2835   2.016       .  S
O2818      C2819   1.267       .  A
C2819      O2820   1.253       .  A
O2820     Cr2836   1.921       .  S
O2821     Cr2836   2.033       .  S
O2821      C2822   1.268       .  A
C2822      O2823   1.260       .  A
O2823     Cr2837   1.982       .  S
O2824     Cr2837   1.981       .  S
O2824      C2825   1.261       .  A
O2826     Cr2835   2.021       .  S
O2826      C2834   1.268       .  A
O2827     Cr2835   1.955       .  S
O2827      C2828   1.254       .  A
C2828      O2829   1.268       .  A
O2829     Cr2836   2.019       .  S
O2830     Cr2836   1.924       .  S
O2830      C2831   1.254       .  A
C2831      O2832   1.262       .  A
O2832     Cr2837   2.001       .  S
O2833     Cr2837   1.961       .  S
O2833      C2834   1.258       .  A
C2834      C2850   1.468       .  S
Cr2835     O2838   1.786       .  S
Cr2836     O2838   1.761       .  S
Cr2837     O2838   1.770       .  S
O2839     Cr2857   2.015       .  S
O2839      C2847   1.266       .  A
O2840     Cr2857   1.938       .  S
O2840      C2841   1.248       .  A
C2841      O2842   1.261       .  A
O2842     Cr2858   1.982       .  S
O2843     Cr2858   1.979   1_655  S
O2843      C2844   1.262       .  A
C2844      O2845   1.268       .  A
O2845     Cr2859   2.029   1_655  S
O2846     Cr2859   1.930   1_655  S
O2846      C2847   1.255   1_655  A
O2848     Cr2857   1.937       .  S
O2848      C2856   1.252       .  A
O2849     Cr2857   2.019       .  S
O2849      C2850   1.267       .  A
C2850      O2851   1.258       .  A
O2851     Cr2858   1.963       .  S
O2852     Cr2858   1.986       .  S
O2852      C2853   1.260       .  A
C2853      O2854   1.256       .  A
O2854     Cr2859   1.948       .  S
O2855     Cr2859   2.025       .  S
O2855      C2856   1.267       .  A
Cr2857     O2860   1.781       .  S
Cr2858     O2860   1.765       .  S
Cr2859     O2860   1.769       .  S
O2861     Cr2879   1.997   1_554  S
O2861      C2869   1.262       .  A
O2862     Cr2879   2.029   1_554  S
O2862      C2863   1.268       .  A
C2863      O2864   1.264   1_655  A
O2864     Cr2880   2.000       .  S
O2865     Cr2880   2.006       .  S
O2865      C2866   1.267       .  A
C2866      O2867   1.253       .  A
O2867     Cr2881   1.927   1_455  S
O2868     Cr2881   2.021       .  S
O2868      C2869   1.262       .  A
C2869      C2973   1.490       .  S
O2870     Cr2879   2.007       .  S
O2870      C2878   1.268       .  A
O2871     Cr2879   1.997       .  S
O2871      C2872   1.263   1_655  A
C2872      O2873   1.271       .  A
O2873     Cr2880   2.035   1_556  S
O2874     Cr2880   2.006   1_556  S
O2874      C2875   1.264       .  A
C2875      O2876   1.263       .  A
O2876     Cr2881   2.012   1_456  S
O2877     Cr2881   1.922   1_556  S
O2877      C2878   1.251       .  A
Cr2879     O2882   1.789   1_556  S
Cr2880     O2882   1.791   1_455  S
Cr2881     O2882   1.788       .  S
O2883     Cr2901   1.929       .  S
O2883      C2891   1.253       .  A
O2884     Cr2901   2.003       .  S
O2884      C2885   1.260       .  A
C2885      O2886   1.263       .  A
O2886     Cr2902   1.999       .  S
O2887     Cr2902   2.024       .  S
O2887      C2888   1.268       .  A
C2888      O2889   1.260       .  A
O2889     Cr2903   1.970       .  S
O2890     Cr2903   2.051       .  S
O2890      C2891   1.276       .  A
O2892     Cr2901   2.015       .  S
O2892      C2900   1.260       .  A
O2893     Cr2901   1.927       .  S
O2893      C2894   1.256       .  A
C2894      O2895   1.269       .  A
O2895     Cr2902   2.026       .  S
O2896     Cr2902   1.995       .  S
O2896      C2897   1.265       .  A
C2897      O2898   1.273       .  A
O2898     Cr2903   2.043       .  S
O2899     Cr2903   1.980       .  S
O2899      C2900   1.258       .  A
Cr2901     O2904   1.778       .  S
Cr2902     O2904   1.788       .  S
Cr2903     O2904   1.780       .  S
O2905     Cr2923   1.956       .  S
O2905      C2913   1.253       .  A
O2906     Cr2923   2.006       .  S
O2906      C2907   1.264       .  A
C2907      O2908   1.257       .  A
O2908     Cr2924   1.964       .  S
O2909     Cr2924   2.051       .  S
O2909      C2910   1.273       .  A
C2910      O2911   1.265       .  A
O2911     Cr2925   2.001       .  S
O2912     Cr2925   2.015       .  S
O2912      C2913   1.269       .  A
O2914     Cr2923   2.010       .  S
O2914      C2922   1.264       .  A
O2915     Cr2923   1.963       .  S
O2915      C2916   1.255       .  A
C2916      O2917   1.274       .  A
O2917     Cr2924   2.044       .  S
O2918     Cr2924   1.957       .  S
O2918      C2919   1.256       .  A
C2919      O2920   1.267       .  A
O2920     Cr2925   2.017       .  S
O2921     Cr2925   1.997       .  S
O2921      C2922   1.263       .  A
Cr2923     O2926   1.790       .  S
Cr2924     O2926   1.781       .  S
Cr2925     O2926   1.781       .  S
O2927     Cr2945   2.022       .  S
O2927      C2935   1.267       .  A
O2928     Cr2945   1.955       .  S
O2928      C2929   1.251       .  A
C2929      O2930   1.266       .  A
O2930     Cr2946   2.009   1_565  S
O2931     Cr2946   2.002       .  S
O2931      C2932   1.265       .  A
C2932      O2933   1.272       .  A
O2933     Cr2947   2.044       .  S
O2934     Cr2947   1.961   1_565  S
O2934      C2935   1.255       .  A
O2936     Cr2945   1.953   1_545  S
O2936      C2944   1.251       .  A
O2937     Cr2945   2.021       .  S
O2937      C2938   1.268   1_565  A
C2938      O2939   1.262       .  A
O2939     Cr2946   1.989       .  S
O2940     Cr2946   2.009       .  S
O2940      C2941   1.266       .  A
C2941      O2942   1.258       .  A
O2942     Cr2947   1.968       .  S
O2943     Cr2947   2.047       .  S
O2943      C2944   1.275       .  A
Cr2945     O2948   1.790   1_565  S
Cr2946     O2948   1.778       .  S
Cr2947     O2948   1.782       .  S
O2949     Cr2967   1.949       .  S
O2949      C2957   1.252       .  A
O2950     Cr2967   1.998       .  S
O2950      C2951   1.262       .  A
C2951      O2952   1.259       .  A
O2952     Cr2968   1.963       .  S
O2953     Cr2968   2.005       .  S
O2953      C2954   1.262       .  A
C2954      O2955   1.254       .  A
O2955     Cr2969   1.944       .  S
O2956     Cr2969   2.015       .  S
O2956      C2957   1.269       .  A
O2958     Cr2967   2.002       .  S
O2958      C2966   1.264       .  A
O2959     Cr2967   1.949       .  S
O2959      C2960   1.256       .  A
C2960      O2961   1.263       .  A
O2961     Cr2968   2.007       .  S
O2962     Cr2968   1.955       .  S
O2962      C2963   1.258       .  A
C2963      O2964   1.268       .  A
O2964     Cr2969   2.021       .  S
O2965     Cr2969   1.953       .  S
O2965      C2966   1.253       .  A
Cr2967     O2970   1.771       .  S
Cr2968     O2970   1.773       .  S
Cr2969     O2970   1.770       .  S
O2971     Cr2989   2.010       .  S
O2971      C2979   1.265       .  A
O2972     Cr2989   1.984       .  S
O2972      C2973   1.256       .  A
C2973      O2974   1.267       .  A
O2974     Cr2990   2.019       .  S
O2975     Cr2990   1.979       .  S
O2975      C2976   1.258       .  A
C2976      O2977   1.267       .  A
O2977     Cr2991   2.023       .  S
O2978     Cr2991   1.982       .  S
O2978      C2979   1.259       .  A
O2980     Cr2989   1.969       .  S
O2980      C2988   1.255       .  A
O2981     Cr2989   2.022       .  S
O2981      C2982   1.267       .  A
C2982      O2983   1.258       .  A
O2983     Cr2990   1.978       .  S
O2984     Cr2990   2.016       .  S
O2984      C2985   1.266       .  A
C2985      O2986   1.260       .  A
O2986     Cr2991   1.985       .  S
O2987     Cr2991   2.020       .  S
O2987      C2988   1.267       .  A
Cr2989     O2992   1.800       .  S
Cr2990     O2992   1.796       .  S
Cr2991     O2992   1.803       .  S
