geometry optimzed in LAMMPS
_audit_creation_date              2020-11-30 
_audit_creation_method            'lammps2cif' 
_symmetry_space_group_name_H-M    'P1' 
_symmetry_Int_Tables_number       1 
_symmetry_cell_setting            triclinic 
loop_ 
_symmetry_equiv_pos_as_xyz 
  x,y,z 
_cell_length_a                    44.36138128 
_cell_length_b                    44.309235333123766 
_cell_length_c                    43.723799357607234 
_cell_angle_alpha                 90.00985407970627 
_cell_angle_beta                  90.01946939844454 
_cell_angle_gamma                 89.92386097760411 
loop_ 
_atom_site_label 
_atom_site_type_symbol 
_atom_site_fract_x 
_atom_site_fract_y 
_atom_site_fract_z 
_atom_site_charge 
N1          N  0.55338428  0.46958444  0.04149152    -0.06400
N2          N  0.57282192  0.46582486  0.06400428    -0.58500
N3          N  0.53708068  0.44173937  0.47222524    -0.06100
N4          N  0.54348159  0.42053334  0.45200844    -0.60700
N5          N  0.55788328  0.46283477  0.47189190    -0.05700
N6          N  0.57874864  0.45661870  0.45143793    -0.58500
N7          N  0.53263287  0.44842030  0.04215794    -0.05400
N8          N  0.53761374  0.42976449  0.06516582    -0.61000
C9          C  0.56262998  0.44103947  0.07874836     0.95700
C10         C  0.56948043  0.43026458  0.43914091     0.95500
N11         N  0.44566696  0.46311004  0.46451626    -0.06600
N12         N  0.42794526  0.45701858  0.44116143    -0.59100
N13         N  0.46157269  0.44850333  0.03717312    -0.04700
N14         N  0.45484851  0.43055176  0.06022701    -0.60400
N15         N  0.44070938  0.46937917  0.03381589    -0.06600
N16         N  0.41934231  0.46601766  0.05457618    -0.59400
N17         N  0.46626732  0.44197385  0.46772262    -0.04400
N18         N  0.46287108  0.42090067  0.44666450    -0.60500
Mn19       Mn  0.49934521  0.44417427  0.00494748     1.18400
C20         C  0.43896914  0.43072284  0.43019656     0.97800
C21         C  0.42855921  0.44179934  0.07100567     0.98500
N22         N  0.55856190  0.53268330  0.46502989    -0.06700
N23         N  0.57926125  0.53471902  0.44349328    -0.63000
N24         N  0.53240366  0.56074563  0.03047447    -0.05500
N25         N  0.53502504  0.58206196  0.05131150    -0.63600
N26         N  0.55317160  0.53994516  0.03433547    -0.06200
N27         N  0.57052631  0.54667286  0.05783084    -0.63200
N28         N  0.53768769  0.55338639  0.46117814    -0.05100
N29         N  0.54365745  0.56996550  0.43686877    -0.63900
Mn30       Mn  0.55686978  0.50099840  0.50346525     1.10700
C31         C  0.56960696  0.55797330  0.42602030     0.99100
C32         C  0.55881725  0.57291988  0.06826085     0.99100
N33         N  0.44139585  0.54023945  0.02666317    -0.06200
N34         N  0.42089166  0.54755418  0.04724563    -0.61600
N35         N  0.46736762  0.55382266  0.45676101    -0.05500
N36         N  0.46397890  0.57172260  0.43296639    -0.58300
N37         N  0.44586473  0.53346818  0.45757418    -0.06800
N38         N  0.42725816  0.53717035  0.43428562    -0.61100
N39         N  0.46261405  0.56087992  0.02552605    -0.05800
N40         N  0.45716218  0.58259602  0.04531330    -0.58300
Mn41       Mn  0.44228068  0.50153570  0.99537127     1.20200
Mn42       Mn  0.50032093  0.55795844  0.49363855     1.10100
Cl43       Cl  0.49948539  0.50128648  0.99919698    -0.86300
C44         C  0.43116832  0.57397959  0.05875599     0.96100
C45         C  0.43902061  0.56099506  0.41901731     0.95900
N46         N  0.44439014  0.96224118  0.03655427    -0.06400
N47         N  0.42302415  0.94275695  0.04401076    -0.58500
N48         N  0.46282578  0.03184828  0.05743706    -0.06100
N49         N  0.45386722  0.05045204  0.07937437    -0.60700
N50         N  0.44248996  0.03095050  0.03546514    -0.05700
N51         N  0.41952690  0.04874289  0.04205969    -0.58500
N52         N  0.46541165  0.96280687  0.05785281    -0.05400
N53         N  0.45879473  0.94362817  0.07997157    -0.61000
C54         C  0.43242503  0.93106596  0.07103195     0.95700
C55         C  0.42689274  0.06103932  0.06933266     0.95500
N56         N  0.55667185  0.03431226  0.03742588    -0.06600
N57         N  0.57790882  0.05385207  0.04504034    -0.59100
N58         N  0.53783198  0.96472442  0.05897111    -0.04700
N59         N  0.54553203  0.94537158  0.08074200    -0.60400
N60         N  0.55873621  0.96533972  0.03758737    -0.06600
N61         N  0.58080412  0.94643801  0.04431464    -0.59400
N62         N  0.53537691  0.03381475  0.05841993    -0.04400
N63         N  0.54177817  0.05300982  0.08060512    -0.60500
Mn64       Mn  0.50036146  0.99832386  0.05876587     1.18400
C65         C  0.56823435  0.06557671  0.07191362     0.97800
C66         C  0.57232329  0.93390086  0.07117145     0.98500
N67         N  0.44376318  0.03047234  0.46250034    -0.06700
N68         N  0.42185095  0.04912561  0.45435925    -0.63000
N69         N  0.46705784  0.96187820  0.44278052    -0.05500
N70         N  0.46050546  0.94254168  0.42071251    -0.63600
N71         N  0.44570567  0.96167606  0.46370562    -0.06200
N72         N  0.42428432  0.94236444  0.45619620    -0.63200
N73         N  0.46548628  0.03090334  0.44197850    -0.05100
N74         N  0.45887041  0.04992871  0.41971859    -0.63900
Mn75       Mn  0.44347988  0.99633638  0.99939791     1.10700
C76         C  0.43169820  0.06133304  0.42773940     0.99100
C77         C  0.43386608  0.93033642  0.42947156     0.99100
N78         N  0.55992689  0.96493898  0.46571624    -0.06200
N79         N  0.58276026  0.94707021  0.45866059    -0.61600
N80         N  0.53739768  0.03300944  0.44314333    -0.05500
N81         N  0.54447812  0.05189101  0.42084222    -0.58300
N82         N  0.55818966  0.03363269  0.46465943    -0.06800
N83         N  0.57990131  0.05267476  0.45717168    -0.61100
N84         N  0.53926801  0.96405467  0.44409671    -0.05800
N85         N  0.54773688  0.94558859  0.42198028    -0.58300
Mn86       Mn  0.55863189  0.99966548  0.00103073     1.20200
Mn87       Mn  0.50228522  0.99742114  0.44254248     1.10100
Cl88       Cl  0.50109011  0.99794079  0.00032328    -0.86300
C89         C  0.57477791  0.93489855  0.43144533     0.96100
C90         C  0.57094607  0.06419143  0.42995181     0.95900
N91         N  0.96685956  0.55523534  0.03718964    -0.06400
N92         N  0.94777516  0.57731770  0.04312687    -0.58500
N93         N  0.03529921  0.53477945  0.06034041    -0.06100
N94         N  0.05404572  0.54304281  0.08244647    -0.60700
N95         N  0.03572098  0.55480663  0.03810948    -0.05700
N96         N  0.05489437  0.57665857  0.04437425    -0.58500
N97         N  0.96629488  0.53492010  0.05918682    -0.05400
N98         N  0.94677576  0.54309245  0.08061919    -0.61000
C99         C  0.93515834  0.56951838  0.07011811     0.95700
C100        C  0.06637525  0.56909942  0.07193626     0.95500
N101        N  0.03498238  0.44119789  0.03790133    -0.06600
N102        N  0.05476247  0.41974101  0.04400890    -0.59100
N103        N  0.96646737  0.46200515  0.05935178    -0.04700
N104        N  0.94872395  0.45380776  0.08214962    -0.60400
N105        N  0.96617398  0.44128147  0.03769002    -0.06600
N106        N  0.94819928  0.41876350  0.04546693    -0.59400
N107        N  0.03529756  0.46189675  0.05956428    -0.04400
N108        N  0.05528324  0.45466426  0.08087193    -0.60500
Mn109      Mn  0.00080991  0.49835848  0.06031352     1.18400
C110        C  0.06745932  0.42838715  0.07074157     0.97800
C111        C  0.93720730  0.42695664  0.07313130     0.98500
N112        N  0.03736695  0.55447932  0.46563160    -0.06700
N113        N  0.05715725  0.57589284  0.45967619    -0.63000
N114        N  0.96853302  0.53559622  0.44223062    -0.05500
N115        N  0.95068690  0.54428768  0.41959290    -0.63600
N116        N  0.96869662  0.55613981  0.46399349    -0.06200
N117        N  0.95107722  0.57902158  0.45661167    -0.63200
N118        N  0.03748431  0.53399226  0.44380769    -0.05100
N119        N  0.05736579  0.54132002  0.42247768    -0.63900
Mn120      Mn  0.00186505  0.55527384  0.00140965     1.10700
C121        C  0.06970262  0.56740727  0.43283468     0.99100
C122        C  0.93972396  0.57133875  0.42901250     0.99100
N123        N  0.96619488  0.44180406  0.46357959    -0.06200
N124        N  0.94673368  0.42045466  0.45582652    -0.61600
N125        N  0.03593204  0.46148805  0.44368364    -0.05500
N126        N  0.05602698  0.45394538  0.42263763    -0.58300
N127        N  0.03532194  0.44103878  0.46552570    -0.06800
N128        N  0.05519126  0.41950743  0.45998934    -0.61100
N129        N  0.96691337  0.46296263  0.44238544    -0.05800
N130        N  0.94786004  0.45644579  0.42008442    -0.58300
Mn131      Mn  0.00062374  0.44079017  0.00117057     1.20200
Mn132      Mn  0.00218513  0.49845672  0.44240447     1.10100
Cl133      Cl  0.00119355  0.49814833  0.00140327    -0.86300
C134        C  0.93519645  0.42998336  0.42874190     0.96100
C135        C  0.06809039  0.42784674  0.43328314     0.95900
C136        C  0.25655343  0.25627987  0.22339912     0.45200
H137        H  0.25674829  0.25939401  0.19817185    -0.03900
C138        C  0.25607545  0.24912902  0.28228166     0.45200
H139        H  0.25611861  0.24617492  0.30752710    -0.03900
C140        C  0.27935980  0.27632518  0.24010323    -0.17600
C141        C  0.22623848  0.26469856  0.23815859    -0.17300
C142        C  0.26524829  0.22400626  0.23346298    -0.17700
C143        C  0.27924044  0.27229721  0.27122281    -0.17700
C144        C  0.22593263  0.26111265  0.26954026    -0.17200
C145        C  0.26462230  0.22022143  0.26482132    -0.17600
C146        C  0.74380448  0.25036826  0.22072135     0.45200
H147        H  0.74168494  0.24945885  0.19542670    -0.03900
C148        C  0.74792398  0.25176839  0.27982128     0.45200
H149        H  0.74961904  0.25253039  0.30517139    -0.03900
C150        C  0.72096415  0.27174679  0.23571706    -0.17600
C151        C  0.73779204  0.21959956  0.23588016    -0.17300
C152        C  0.77457207  0.26212776  0.23207436    -0.17700
C153        C  0.72308595  0.27229690  0.26701424    -0.17700
C154        C  0.73947589  0.22032089  0.26739260    -0.17200
C155        C  0.77682721  0.26252103  0.26358428    -0.17600
C156        C  0.25285524  0.74924303  0.22146773     0.45200
H157        H  0.25329804  0.75067774  0.19609864    -0.03900
C158        C  0.25225700  0.74587417  0.28070610     0.45200
H159        H  0.25196049  0.74452058  0.30609033    -0.03900
C160        C  0.27501157  0.72589502  0.23446809    -0.17600
C161        C  0.26186798  0.77891049  0.23712698    -0.17300
C162        C  0.22216596  0.73913346  0.23437473    -0.17700
C163        C  0.27482683  0.72424831  0.26583585    -0.17700
C164        C  0.26178656  0.77714967  0.26858701    -0.17200
C165        C  0.22197601  0.73707142  0.26591875    -0.17600
C166        C  0.74594450  0.74840093  0.22248883     0.45200
H167        H  0.74683132  0.75206849  0.19735938    -0.03900
C168        C  0.74440789  0.74007146  0.28105733     0.45200
H169        H  0.74459584  0.73487982  0.30575578    -0.03900
C170        C  0.72185714  0.72576382  0.23238118    -0.17600
C171        C  0.77553376  0.73519955  0.23553041    -0.17300
C172        C  0.73717232  0.77715306  0.24063138    -0.17700
C173        C  0.72095548  0.72144385  0.26342018    -0.17700
C174        C  0.77467865  0.73145547  0.26670450    -0.17200
C175        C  0.73732947  0.77304118  0.27216113    -0.17600
C176        C  0.19997720  0.72290491  0.21437113    -0.03500
C177        C  0.16883305  0.72389563  0.22031147    -0.06100
C178        C  0.14884769  0.70528252  0.20405451    -0.21200
C179        C  0.15945125  0.68569062  0.18113409     0.24500
C180        C  0.19049832  0.68537244  0.17465383    -0.18700
C181        C  0.21040535  0.70375414  0.19096657    -0.08700
C182        C  0.13814836  0.66448613  0.16570254    -0.19000
C183        C  0.14285690  0.65365035  0.13724710    -0.23800
C184        C  0.12265929  0.63167786  0.12157278     0.26600
C185        C  0.12130392  0.63207790  0.08952339    -0.20600
C186        C  0.10335913  0.61143522  0.07364780    -0.10200
C187        C  0.08680868  0.58931624  0.08935784    -0.10800
C188        C  0.08862451  0.58830744  0.12145296    -0.03700
C189        C  0.10623263  0.60944675  0.13746771    -0.18800
H190        H  0.16010191  0.73838975  0.23818533     0.10300
H191        H  0.12507393  0.70591338  0.20964980     0.10400
H192        H  0.19977417  0.66998817  0.15789001     0.10000
H193        H  0.23420950  0.70175114  0.18609997     0.11100
H194        H  0.11771500  0.65828355  0.17782623     0.11200
H195        H  0.16172035  0.66224070  0.12406032     0.13100
H196        H  0.13395268  0.64869771  0.07668306     0.09600
H197        H  0.10244161  0.61279441  0.04892859     0.11700
H198        H  0.07599244  0.57159876  0.13416453     0.08400
H199        H  0.10735634  0.60803743  0.16215172     0.11100
C200        C  0.09056788  0.58693323  0.41510990    -0.03500
C201        C  0.10131033  0.61391757  0.42795293    -0.06100
C202        C  0.11886874  0.63383707  0.41072177    -0.21200
C203        C  0.12615092  0.62750965  0.38011183     0.24500
C204        C  0.11601434  0.60000596  0.36743585    -0.18700
C205        C  0.09844335  0.57998882  0.38479095    -0.08700
C206        C  0.14396583  0.65053138  0.36273600    -0.19000
C207        C  0.15086683  0.64884485  0.33272357    -0.23800
C208        C  0.16873140  0.67226758  0.31623058     0.26600
C209        C  0.18545976  0.66351235  0.29048761    -0.18200
C210        C  0.20246363  0.68457718  0.27417735    -0.10200
C211        C  0.20244031  0.71520216  0.28260829    -0.10800
C212        C  0.18589022  0.72413500  0.30838534    -0.03700
C213        C  0.16899193  0.70293007  0.32497780    -0.18800
H214        H  0.09572021  0.61995546  0.45127720     0.10300
H215        H  0.12639808  0.65461750  0.42130001     0.10400
H216        H  0.12121094  0.59370716  0.34417010     0.10000
H217        H  0.09050360  0.55936022  0.37425850     0.11100
H218        H  0.15188799  0.66993019  0.37560029     0.11200
H219        H  0.14431106  0.62920502  0.31956392     0.13100
H220        H  0.18581364  0.64011996  0.28327041     0.09600
H221        H  0.21601643  0.67685886  0.25511793     0.11700
H222        H  0.18599494  0.74752055  0.31559333     0.08400
H223        H  0.15588659  0.71071296  0.34428703     0.11100
C224        C  0.08977625  0.40863720  0.41632531    -0.03500
C225        C  0.10747968  0.38743261  0.43207574    -0.06100
C226        C  0.12669580  0.36790583  0.41614511    -0.21200
C227        C  0.12804233  0.36851173  0.38406715     0.24500
C228        C  0.11059888  0.39002945  0.36825179    -0.18700
C229        C  0.09181386  0.41004249  0.38428092    -0.08700
C230        C  0.14866942  0.34711287  0.36810837    -0.19000
C231        C  0.14377349  0.33645333  0.33960876    -0.23800
C232        C  0.16463883  0.31504302  0.32384868     0.26600
C233        C  0.15354570  0.29635016  0.30042038    -0.20600
C234        C  0.17297637  0.27735637  0.28392241    -0.10200
C235        C  0.20409387  0.27717428  0.29003505    -0.10800
C236        C  0.21500788  0.29534225  0.31399380    -0.03700
C237        C  0.19562000  0.31407196  0.33060504    -0.18800
H238        H  0.10644353  0.38593558  0.45677840     0.10300
H239        H  0.14015937  0.35185037  0.42891871     0.10400
H240        H  0.11168323  0.39169538  0.34358842     0.10000
H241        H  0.07835872  0.42613898  0.37157036     0.11100
H242        H  0.16767741  0.33857781  0.38114466     0.11200
H243        H  0.12319550  0.34270590  0.32773071     0.13100
H244        H  0.12981252  0.29671654  0.29461673     0.09600
H245        H  0.16388519  0.26362386  0.26563523     0.11700
H246        H  0.23885091  0.29635185  0.31901545     0.08400
H247        H  0.20529087  0.32869418  0.34780953     0.11100
C248        C  0.08886890  0.40919864  0.08832430    -0.03500
C249        C  0.09821351  0.38126735  0.07638949    -0.06100
C250        C  0.11660385  0.36192787  0.09348589    -0.21200
C251        C  0.12614230  0.36981176  0.12305565     0.24500
C252        C  0.11748847  0.39823847  0.13474855    -0.18700
C253        C  0.09901064  0.41764728  0.11755453    -0.08700
C254        C  0.14517078  0.34767040  0.14031609    -0.19000
C255        C  0.15117836  0.34925481  0.17054413    -0.23800
C256        C  0.17022663  0.32682003  0.18720772     0.26600
C257        C  0.18506367  0.33608136  0.21396020    -0.20600
C258        C  0.20311034  0.31595935  0.23044995    -0.10200
C259        C  0.20585506  0.28567849  0.22127519    -0.10800
C260        C  0.19127718  0.27629598  0.19444932    -0.03700
C261        C  0.17346700  0.29658138  0.17761928    -0.18800
H262        H  0.09092098  0.37406232  0.05391001     0.10300
H263        H  0.12303655  0.34041627  0.08366566     0.10400
H264        H  0.12486394  0.40580146  0.15700540     0.10000
H265        H  0.09235896  0.43911093  0.12730772     0.11100
H266        H  0.15444249  0.32899899  0.12729526     0.11200
H267        H  0.14259209  0.36801441  0.18383661     0.13100
H268        H  0.18314441  0.35918115  0.22183434     0.09600
H269        H  0.21520794  0.32417296  0.25028174     0.11700
H270        H  0.19361504  0.25322297  0.18660362     0.08400
H271        H  0.16195852  0.28833985  0.15748666     0.11100
C272        C  0.79509613  0.27861477  0.21058669    -0.03500
C273        C  0.78251429  0.29506449  0.18614986    -0.06100
C274        C  0.80073514  0.31091969  0.16577448    -0.21200
C275        C  0.83201821  0.31168404  0.16967310     0.24500
C276        C  0.84494537  0.29545910  0.19409319    -0.18700
C277        C  0.82664123  0.27875883  0.21415911    -0.08700
C278        C  0.85018667  0.32925712  0.14737558    -0.19000
C279        C  0.87454385  0.34552703  0.15530560    -0.23800
C280        C  0.88995986  0.36620044  0.13350873     0.26600
C281        C  0.90227401  0.39323539  0.14453110    -0.20600
C282        C  0.91668998  0.41337353  0.12470606    -0.10200
C283        C  0.91973614  0.40660929  0.09344844    -0.10800
C284        C  0.90765107  0.37938916  0.08238050    -0.03700
C285        C  0.89276556  0.35943918  0.10216391    -0.18800
H286        H  0.75838156  0.29632485  0.18290940     0.10300
H287        H  0.79022431  0.32327961  0.14722155     0.10400
H288        H  0.86913721  0.29521769  0.19731332     0.10000
H289        H  0.83712726  0.26599620  0.23240528     0.11100
H290        H  0.84127582  0.33141773  0.12432576     0.11200
H291        H  0.88159488  0.34594572  0.17910738     0.13100
H292        H  0.90049249  0.39892902  0.16856115     0.09600
H293        H  0.92600209  0.43399617  0.13401524     0.11700
H294        H  0.90992616  0.37339588  0.05847560     0.08400
H295        H  0.88404416  0.33848673  0.09303568     0.11100
C296        C  0.91422408  0.41218546  0.40905027    -0.03500
C297        C  0.90197924  0.42511829  0.38244722    -0.06100
C298        C  0.88341820  0.40826636  0.36292913    -0.21200
C299        C  0.87689122  0.37782920  0.36906616     0.24500
C300        C  0.88872618  0.36491875  0.39601872    -0.18700
C301        C  0.90711648  0.38194791  0.41578112    -0.08700
C302        C  0.85712064  0.36097074  0.34708352    -0.19000
C303        C  0.85655585  0.33055568  0.34410572    -0.23800
C304        C  0.83710883  0.31366923  0.32173818     0.26600
C305        C  0.83325092  0.28238728  0.32574108    -0.20600
C306        C  0.81459472  0.26566392  0.30614634    -0.10200
C307        C  0.79975619  0.27963015  0.28160333    -0.10800
C308        C  0.80392203  0.31074989  0.27707489    -0.03700
C309        C  0.82252561  0.32755632  0.29670047    -0.18800
H310        H  0.90685877  0.44834495  0.37658251     0.10300
H311        H  0.87445687  0.41900429  0.34260139     0.10400
H312        H  0.88362094  0.34184752  0.40216719     0.10000
H313        H  0.91608502  0.37131518  0.43614392     0.11100
H314        H  0.84305481  0.37464136  0.33229389     0.11200
H315        H  0.87086500  0.31706415  0.35888240     0.13100
H316        H  0.84419585  0.27090045  0.34458875     0.09600
H317        H  0.81131822  0.24181888  0.31045609     0.11700
H318        H  0.79210344  0.32226418  0.25879031     0.08400
H319        H  0.82517393  0.35133648  0.29206508     0.11100
C320        C  0.79522906  0.71064685  0.28356912    -0.03500
C321        C  0.78385016  0.68332124  0.29493826    -0.06100
C322        C  0.80245975  0.66326732  0.31070327    -0.21200
C323        C  0.83270063  0.67040650  0.31638082     0.24500
C324        C  0.84428438  0.69784215  0.30505937    -0.18700
C325        C  0.82569121  0.71767868  0.28845268    -0.08700
C326        C  0.85137135  0.64818719  0.33347769    -0.19000
C327        C  0.87357730  0.65603571  0.35289484    -0.23800
C328        C  0.89000498  0.63359441  0.37210196     0.26600
C329        C  0.90136536  0.64263325  0.40060962    -0.20600
C330        C  0.91681311  0.62218252  0.41932994    -0.10200
C331        C  0.92173719  0.59226909  0.40973865    -0.10800
C332        C  0.91066398  0.58323448  0.38107281    -0.03700
C333        C  0.89490860  0.60363757  0.36245244    -0.18800
H334        H  0.76056377  0.67722352  0.29124030     0.10300
H335        H  0.79304066  0.64222061  0.31891811     0.10400
H336        H  0.86770977  0.70369196  0.30854269     0.10000
H337        H  0.83493222  0.73858084  0.27970988     0.11100
H338        H  0.84464112  0.62466671  0.33208324     0.11200
H339        H  0.87825030  0.67981702  0.35665791     0.13100
H340        H  0.89807127  0.66557091  0.40854438     0.09600
H341        H  0.92528643  0.62996541  0.44117368     0.11700
H342        H  0.91440736  0.56045878  0.37291011     0.08400
H343        H  0.88717260  0.59605798  0.34028410     0.11100
C344        C  0.79363381  0.71414514  0.21623616    -0.03500
C345        C  0.78691446  0.68317650  0.21662169    -0.06100
C346        C  0.80360431  0.66278355  0.19912824    -0.21200
C347        C  0.82732783  0.67272906  0.18047538     0.24500
C348        C  0.83390519  0.70393066  0.17978659    -0.18700
C349        C  0.81704151  0.72444864  0.19744087    -0.08700
C350        C  0.84498891  0.64951495  0.16323667    -0.19000
C351        C  0.86283291  0.65552373  0.13903215    -0.23800
C352        C  0.87994713  0.63196922  0.12169859     0.26600
C353        C  0.88928045  0.63859590  0.09178921    -0.20600
C354        C  0.90634801  0.61789623  0.07493181    -0.10200
C355        C  0.91489102  0.59000019  0.08761410    -0.10800
C356        C  0.90543452  0.58309199  0.11748068    -0.03700
C357        C  0.88818688  0.60384747  0.13439599    -0.18800
H358        H  0.76857404  0.67475136  0.23052897     0.10300
H359        H  0.79789282  0.63903613  0.20018518     0.10400
H360        H  0.85234643  0.71258100  0.16624938     0.10000
H361        H  0.82251951  0.74824766  0.19676552     0.11100
H362        H  0.84196029  0.62619145  0.17015812     0.11200
H363        H  0.86402627  0.67846520  0.13044247     0.13100
H364        H  0.88346173  0.66003073  0.08140624     0.09600
H365        H  0.91331892  0.62404384  0.05203628     0.11700
H366        H  0.91191776  0.56194317  0.12801530     0.08400
H367        H  0.88218384  0.59807049  0.15763227     0.11100
C368        C  0.72419266  0.19786172  0.28781999    -0.03500
C369        C  0.70359150  0.20814942  0.30997170    -0.06100
C370        C  0.68700747  0.18793354  0.32771090    -0.21200
C371        C  0.69067364  0.15667364  0.32410124     0.24500
C372        C  0.71211136  0.14617609  0.30285613    -0.18700
C373        C  0.72850668  0.16656408  0.28463269    -0.08700
C374        C  0.67293618  0.13498527  0.34302190    -0.19000
C375        C  0.64428553  0.14068831  0.35185381    -0.23800
C376        C  0.62612678  0.12024322  0.37166402     0.26600
C377        C  0.59463928  0.11957552  0.36814904    -0.20600
C378        C  0.57671252  0.10137430  0.38701730    -0.10200
C379        C  0.58980203  0.08415000  0.41049614    -0.10800
C380        C  0.62125180  0.08530801  0.41450028    -0.03700
C381        C  0.63927446  0.10294607  0.39512439    -0.18800
H382        H  0.69957913  0.23195112  0.31325697     0.10300
H383        H  0.67144899  0.19690964  0.34449312     0.10400
H384        H  0.71570051  0.12216964  0.29991821     0.10000
H385        H  0.74433758  0.15793510  0.26792444     0.11100
H386        H  0.68328712  0.11352407  0.34886727     0.11200
H387        H  0.63307240  0.16077987  0.34325351     0.13100
H388        H  0.58389614  0.13298078  0.35051772     0.09600
H389        H  0.55255885  0.10098398  0.38342939     0.11700
H390        H  0.63198821  0.07220682  0.43235227     0.08400
H391        H  0.66337423  0.10352419  0.39895086     0.11100
C392        C  0.58635586  0.08591733  0.09167245    -0.03500
C393        C  0.57544595  0.09450844  0.12053589    -0.06100
C394        C  0.59294074  0.11231068  0.14005984    -0.21200
C395        C  0.62193380  0.12170583  0.13146608     0.24500
C396        C  0.63280474  0.11352620  0.10235553    -0.18700
C397        C  0.61514939  0.09580724  0.08266089    -0.08700
C398        C  0.63940613  0.14071977  0.15328680    -0.19000
C399        C  0.66982064  0.14177609  0.15443041    -0.23800
C400        C  0.68717973  0.16017477  0.17711627     0.26600
C401        C  0.71792033  0.16576534  0.17167026    -0.20600
C402        C  0.73475963  0.18389849  0.19162432    -0.10200
C403        C  0.72139047  0.19638938  0.21778897    -0.10800
C404        C  0.69088483  0.19038645  0.22368525    -0.03700
C405        C  0.67405033  0.17221906  0.20386150    -0.18800
H406        H  0.55341573  0.08724120  0.12821694     0.10300
H407        H  0.58391222  0.11844021  0.16222791     0.10400
H408        H  0.65469044  0.12104940  0.09455872     0.10000
H409        H  0.62412680  0.08965131  0.06049671     0.11100
H410        H  0.62623642  0.15353857  0.16959320     0.11200
H411        H  0.68274046  0.12873992  0.13799774     0.13100
H412        H  0.72876905  0.15673346  0.15144991     0.09600
H413        H  0.75807421  0.18881822  0.18625124     0.11700
H414        H  0.67971997  0.20061064  0.24312959     0.08400
H415        H  0.65079829  0.16802523  0.20969986     0.11100
C416        C  0.28359118  0.20459064  0.21251699    -0.03500
C417        C  0.30661760  0.21799109  0.19511949    -0.06100
C418        C  0.32638854  0.20048954  0.17783535    -0.21200
C419        C  0.32329208  0.16910173  0.17665298     0.24500
C420        C  0.29973126  0.15541900  0.19324303    -0.18700
C421        C  0.28016972  0.17305292  0.21126482    -0.08700
C422        C  0.34621203  0.15160434  0.15926181    -0.19000
C423        C  0.34002425  0.12623125  0.14361878    -0.23800
C424        C  0.36306892  0.11059326  0.12454633     0.26600
C425        C  0.35409675  0.09661547  0.09726968    -0.20600
C426        C  0.37509088  0.08144869  0.07896892    -0.10200
C427        C  0.40549835  0.07924725  0.08789343    -0.10800
C428        C  0.41453828  0.09312734  0.11529030    -0.03700
C429        C  0.39358043  0.10882506  0.13335972    -0.18800
H430        H  0.31024224  0.24206177  0.19564756     0.10300
H431        H  0.34437858  0.21157509  0.16541654     0.10400
H432        H  0.29710282  0.13113954  0.19315605     0.10000
H433        H  0.26277245  0.16210397  0.22461151     0.11100
H434        H  0.36857883  0.16139957  0.15730916     0.11200
H435        H  0.31696468  0.11802102  0.14284138     0.13100
H436        H  0.33076212  0.09757529  0.09000310     0.09600
H437        H  0.36731116  0.07084077  0.05810498     0.11700
H438        H  0.43773444  0.09163030  0.12287454     0.08400
H439        H  0.40111501  0.11889533  0.15457363     0.11100
C440        C  0.41360725  0.08149573  0.40772692    -0.03500
C441        C  0.42693529  0.09522923  0.38213936    -0.06100
C442        C  0.40980724  0.11322779  0.36237432    -0.21200
C443        C  0.37882408  0.11763510  0.36734885     0.24500
C444        C  0.36547888  0.10407061  0.39316769    -0.18700
C445        C  0.38273334  0.08624951  0.41313982    -0.08700
C446        C  0.36181154  0.13740882  0.34568290    -0.19000
C447        C  0.33155567  0.13693577  0.34203908    -0.23800
C448        C  0.31474033  0.15719580  0.32060089     0.26600
C449        C  0.28373660  0.16191305  0.32536327    -0.20600
C450        C  0.26723374  0.18140248  0.30641679    -0.10200
C451        C  0.28120946  0.19621777  0.28188377    -0.10800
C452        C  0.31215593  0.19141449  0.27692917    -0.03700
C453        C  0.32864439  0.17184694  0.29572397    -0.18800
H454        H  0.45067987  0.09204483  0.37734563     0.10300
H455        H  0.42080246  0.12355733  0.34289160     0.10400
H456        H  0.34191011  0.10749481  0.39841192     0.10000
H457        H  0.37182790  0.07594487  0.43266673     0.11100
H458        H  0.37519398  0.15284999  0.33209161     0.11200
H459        H  0.31819014  0.12151560  0.35570076     0.13100
H460        H  0.27235876  0.15100851  0.34428720     0.09600
H461        H  0.24362430  0.18540334  0.31126533     0.11700
H462        H  0.32393250  0.20358509  0.25912489     0.08400
H463        H  0.35223963  0.16852681  0.29062338     0.11100
C464        C  0.59210663  0.91350764  0.08943657    -0.03500
C465        C  0.61986625  0.90375019  0.07746850    -0.06100
C466        C  0.63969015  0.88634095  0.09512721    -0.21200
C467        C  0.63252495  0.87821738  0.12534270     0.24500
C468        C  0.60430864  0.88740048  0.13711762    -0.18700
C469        C  0.58440770  0.90483104  0.11934573    -0.08700
C470        C  0.65519434  0.86015304  0.14318318    -0.19000
C471        C  0.65317636  0.85365482  0.17333518    -0.23800
C472        C  0.67577379  0.83503375  0.19044903     0.26600
C473        C  0.66627978  0.81959266  0.21678482    -0.20600
C474        C  0.68631212  0.80147115  0.23338047    -0.10200
C475        C  0.71677493  0.79910425  0.22476348    -0.10800
C476        C  0.72646789  0.81465084  0.19855979    -0.03700
C477        C  0.70627335  0.83257206  0.18164139    -0.18800
H478        H  0.62652688  0.90991901  0.05448441     0.10300
H479        H  0.66100081  0.87952108  0.08517897     0.10400
H480        H  0.59727568  0.88135502  0.15993083     0.10000
H481        H  0.56315479  0.91189990  0.12921647     0.11100
H482        H  0.67449655  0.85170019  0.13056703     0.11200
H483        H  0.63372568  0.86118154  0.18619930     0.13100
H484        H  0.64300181  0.82092996  0.22413270     0.09600
H485        H  0.67780882  0.78876958  0.25269895     0.11700
H486        H  0.74964438  0.81268294  0.19104478     0.08400
H487        H  0.71471400  0.84457235  0.16188575     0.11100
C488        C  0.72520061  0.79516684  0.29557237    -0.03500
C489        C  0.71461372  0.78488538  0.32423753    -0.06100
C490        C  0.70099280  0.80440087  0.34502560    -0.21200
C491        C  0.69675654  0.83475366  0.33782949     0.24500
C492        C  0.70841202  0.84589612  0.31016654    -0.18700
C493        C  0.72319306  0.82644050  0.28963745    -0.08700
C494        C  0.67968644  0.85376031  0.35970778    -0.19000
C495        C  0.65770037  0.87265434  0.35061186    -0.23800
C496        C  0.63663772  0.88766659  0.37234488     0.26600
C497        C  0.60751176  0.89508274  0.36228282    -0.20600
C498        C  0.58706608  0.90943111  0.38184013    -0.10200
C499        C  0.59543714  0.91705595  0.41184858    -0.10800
C500        C  0.62452263  0.90947617  0.42207324    -0.03700
C501        C  0.64493963  0.89494573  0.40254735    -0.18800
H502        H  0.71556325  0.76161781  0.33105951     0.10300
H503        H  0.69253752  0.79538505  0.36640866     0.10400
H504        H  0.70622867  0.86959064  0.30453187     0.10000
H505        H  0.73248330  0.83591814  0.26890727     0.11100
H506        H  0.68234031  0.84877529  0.38386766     0.11200
H507        H  0.65316496  0.87492080  0.32628960     0.13100
H508        H  0.60052825  0.88972450  0.33916922     0.09600
H509        H  0.56488473  0.91510586  0.37322518     0.11700
H510        H  0.63173168  0.91533377  0.44497833     0.08400
H511        H  0.66739304  0.89018191  0.41094597     0.11100
C512        C  0.41528866  0.91014648  0.41002345    -0.03500
C513        C  0.42728664  0.89741773  0.38323516    -0.06100
C514        C  0.40934585  0.87942251  0.36421067    -0.21200
C515        C  0.37886215  0.87436799  0.37112975     0.24500
C516        C  0.36682733  0.88695522  0.39800427    -0.18700
C517        C  0.38492444  0.90449792  0.41735089    -0.08700
C518        C  0.36070766  0.85444923  0.35089565    -0.19000
C519        C  0.33113454  0.85882680  0.34518341    -0.23800
C520        C  0.31336424  0.83797405  0.32549811     0.26600
C521        C  0.29041452  0.84927964  0.30646262    -0.20600
C522        C  0.27348564  0.82973913  0.28788211    -0.10200
C523        C  0.27868959  0.79846792  0.28871020    -0.10800
C524        C  0.30120281  0.78721629  0.30828436    -0.03700
C525        C  0.31843624  0.80669241  0.32630334    -0.18800
H526        H  0.45056742  0.90135736  0.37697416     0.10300
H527        H  0.41920886  0.86969491  0.34380235     0.10400
H528        H  0.34360967  0.88281324  0.40435270     0.10000
H529        H  0.37501949  0.91395681  0.43785838     0.11100
H530        H  0.37248264  0.83626291  0.33924627     0.11200
H531        H  0.31994596  0.87876027  0.35418154     0.13100
H532        H  0.28592246  0.87329856  0.30563264     0.09600
H533        H  0.25629633  0.83896417  0.27296852     0.11700
H534        H  0.30596388  0.76328506  0.30928220     0.08400
H535        H  0.33546348  0.79717715  0.34121340     0.11100
C536        C  0.41417431  0.91081990  0.09079777    -0.03500
C537        C  0.42683432  0.89843770  0.11743240    -0.06100
C538        C  0.40936568  0.88104434  0.13738268    -0.21200
C539        C  0.37866211  0.87583159  0.13154118     0.24500
C540        C  0.36602854  0.88778282  0.10452265    -0.18700
C541        C  0.38365492  0.90502695  0.08435953    -0.08700
C542        C  0.36128406  0.85704005  0.15380929    -0.19000
C543        C  0.33090379  0.85705175  0.15644791    -0.23800
C544        C  0.31366491  0.83811181  0.17885285     0.26600
C545        C  0.28232828  0.83495733  0.17493503    -0.20600
C546        C  0.26531344  0.81668450  0.19460825    -0.10200
C547        C  0.27910271  0.80160696  0.21908203    -0.10800
C548        C  0.31029357  0.80496491  0.22340639    -0.03700
C549        C  0.32735457  0.82317022  0.20376417    -0.18800
H550        H  0.45028266  0.90239387  0.12302699     0.10300
H551        H  0.41985541  0.87193022  0.15777306     0.10400
H552        H  0.34273383  0.88365261  0.09861165     0.10000
H553        H  0.37325657  0.91423170  0.06397535     0.11100
H554        H  0.37460441  0.84297712  0.16891465     0.11200
H555        H  0.31774547  0.87134916  0.14135231     0.13100
H556        H  0.27103038  0.84614094  0.15611116     0.09600
H557        H  0.24141957  0.81385950  0.19040242     0.11700
H558        H  0.32167880  0.79273886  0.24148430     0.08400
H559        H  0.35118546  0.82517156  0.20833741     0.11100
C560        C  0.42419798  0.57646456  0.39329363    -0.03500
C561        C  0.43826223  0.60131171  0.37944878    -0.06100
C562        C  0.42273428  0.61884585  0.35816958    -0.21200
C563        C  0.39281287  0.61205355  0.35056189     0.24500
C564        C  0.37941291  0.58594650  0.36285117    -0.18700
C565        C  0.39500896  0.56833085  0.38412601    -0.08700
C566        C  0.37615948  0.63336617  0.33068182    -0.19000
C567        C  0.34608229  0.63710865  0.33240469    -0.23800
C568        C  0.32891761  0.66053522  0.31539233     0.26600
C569        C  0.29812354  0.66402475  0.32205060    -0.20600
C570        C  0.28075768  0.68541631  0.30660882    -0.10200
C571        C  0.29381581  0.70351616  0.28399229    -0.10800
C572        C  0.32471448  0.70089192  0.27790010    -0.03700
C573        C  0.34209524  0.67942000  0.29316934    -0.18800
H574        H  0.46091440  0.60785933  0.38584756     0.10300
H575        H  0.43370235  0.63854632  0.34862973     0.10400
H576        H  0.35681834  0.57928681  0.35648931     0.10000
H577        H  0.38383298  0.54901371  0.39417768     0.11100
H578        H  0.38968150  0.64804229  0.31647557     0.11200
H579        H  0.33334007  0.62336318  0.34833982     0.13100
H580        H  0.28736974  0.64997644  0.33911834     0.09600
H581        H  0.25696344  0.68721893  0.31176973     0.11700
H582        H  0.33527563  0.71511744  0.26086498     0.08400
H583        H  0.36557134  0.67775975  0.28696098     0.11100
C584        C  0.29213256  0.70535577  0.21444892    -0.03500
C585        C  0.29086956  0.67407512  0.21910958    -0.06100
C586        C  0.30742354  0.65468002  0.20052939    -0.21200
C587        C  0.32515565  0.66615335  0.17670411     0.24500
C588        C  0.32541366  0.69752316  0.17130759    -0.18700
C589        C  0.30904792  0.71694934  0.19016334    -0.08700
C590        C  0.34208977  0.64449900  0.15750055    -0.19000
C591        C  0.36564040  0.65242302  0.13997140    -0.23800
C592        C  0.38241298  0.63080801  0.12055771     0.26600
C593        C  0.41117743  0.63903592  0.11031310    -0.20600
C594        C  0.42734353  0.62010809  0.09086541    -0.10200
C595        C  0.41493439  0.59262206  0.08113648    -0.10800
C596        C  0.38634953  0.58406058  0.09162624    -0.03700
C597        C  0.37008764  0.60305786  0.11101914    -0.18800
H598        H  0.27703667  0.66465407  0.23713151     0.10300
H599        H  0.30639640  0.63062112  0.20480878     0.10400
H600        H  0.33774995  0.70722580  0.15241836     0.10000
H601        H  0.30974686  0.74103523  0.18594340     0.11100
H602        H  0.33558350  0.62097292  0.15909498     0.11200
H603        H  0.37390488  0.67544081  0.14057058     0.13100
H604        H  0.42109156  0.66032182  0.11717596     0.09600
H605        H  0.44936608  0.62726393  0.08304744     0.11700
H606        H  0.37621751  0.56306849  0.08421292     0.08400
H607        H  0.34762854  0.59621561  0.11756183     0.11100
C608        C  0.58665172  0.57043558  0.40007289    -0.03500
C609        C  0.61643056  0.56111247  0.39460196    -0.06100
C610        C  0.63368201  0.57524512  0.37208313    -0.21200
C611        C  0.62147981  0.59893230  0.35478509     0.24500
C612        C  0.59103701  0.60689809  0.35894341    -0.18700
C613        C  0.57385884  0.59290323  0.38156403    -0.08700
C614        C  0.64138430  0.61576638  0.33367576    -0.19000
C615        C  0.63735441  0.64533909  0.32808412    -0.23800
C616        C  0.65878949  0.66399790  0.31040401     0.26600
C617        C  0.65878828  0.69524846  0.31546571    -0.20600
C618        C  0.67895929  0.71379849  0.29997592    -0.10200
C619        C  0.69952107  0.70143691  0.27921856    -0.10800
C620        C  0.69907610  0.67036528  0.27324980    -0.03700
C621        C  0.67879962  0.65169700  0.28870632    -0.18800
H622        H  0.62674337  0.54365016  0.40843246     0.10300
H623        H  0.65697129  0.56848951  0.36901673     0.10400
H624        H  0.58054243  0.62420826  0.34509292     0.10000
H625        H  0.55074567  0.60007085  0.38495105     0.11100
H626        H  0.66141333  0.60434894  0.32531360     0.11200
H627        H  0.61887793  0.65716355  0.33915590     0.13100
H628        H  0.64322964  0.70534579  0.33161493     0.09600
H629        H  0.67800674  0.73788240  0.30366724     0.11700
H630        H  0.71447384  0.66062990  0.25673993     0.08400
H631        H  0.67871641  0.62786653  0.28337867     0.11100
C632        C  0.70188534  0.71054303  0.21028186    -0.03500
C633        C  0.71427071  0.69624889  0.18464752    -0.06100
C634        C  0.69616069  0.67857447  0.16578014    -0.21200
C635        C  0.66530001  0.67527066  0.17196224     0.24500
C636        C  0.65260354  0.69120636  0.19669519    -0.18700
C637        C  0.67075570  0.70896930  0.21543095    -0.08700
C638        C  0.64783440  0.65387962  0.15295141    -0.19000
C639        C  0.61768767  0.65106878  0.15388591    -0.23800
C640        C  0.60166583  0.62931926  0.13424123     0.26600
C641        C  0.57314716  0.63698880  0.12289507    -0.20600
C642        C  0.55861969  0.61807143  0.10212697    -0.10200
C643        C  0.57230389  0.59101715  0.09279674    -0.10800
C644        C  0.59997445  0.58241360  0.10564662    -0.03700
C645        C  0.61457355  0.60141120  0.12625002    -0.18800
H646        H  0.73812204  0.69777609  0.17981972     0.10300
H647        H  0.70647014  0.66683570  0.14671222     0.10400
H648        H  0.62902759  0.68947002  0.20250515     0.10000
H649        H  0.66059705  0.72080364  0.23449414     0.11100
H650        H  0.66053166  0.64003858  0.13696574     0.11200
H651        H  0.60402811  0.66622687  0.16751791     0.13100
H652        H  0.56264462  0.65818673  0.12918989     0.09600
H653        H  0.53709941  0.62500952  0.09276044     0.11700
H654        H  0.61077565  0.56144733  0.09910531     0.08400
H655        H  0.63604616  0.59437412  0.13562253     0.11100
C656        C  0.70191020  0.28837624  0.28722389    -0.03500
C657        C  0.67072128  0.28506159  0.28318199    -0.06100
C658        C  0.65066651  0.30028515  0.30224665    -0.21200
C659        C  0.66146521  0.31900197  0.32564044     0.24500
C660        C  0.69279499  0.32116798  0.33050881    -0.18700
C661        C  0.71284207  0.30595234  0.31136425    -0.08700
C662        C  0.63941847  0.33557720  0.34468570    -0.19000
C663        C  0.64628937  0.36149983  0.35901170    -0.23800
C664        C  0.62474781  0.37894778  0.37792593     0.26600
C665        C  0.63236460  0.40868718  0.38562138    -0.20600
C666        C  0.61384882  0.42563428  0.40477694    -0.10200
C667        C  0.58731994  0.41311902  0.41673550    -0.10800
C668        C  0.57919397  0.38362422  0.40859575    -0.03700
C669        C  0.59781945  0.36655357  0.38949458    -0.18800
H670        H  0.66191397  0.27060938  0.26531283     0.10300
H671        H  0.62666509  0.29775533  0.29846797     0.10400
H672        H  0.70194774  0.33429152  0.34917715     0.10000
H673        H  0.73687602  0.30813595  0.31517925     0.11100
H674        H  0.61654484  0.32700161  0.34520915     0.11200
H675        H  0.66853421  0.37121619  0.35591758     0.13100
H676        H  0.65296647  0.41875507  0.37710007     0.09600
H677        H  0.62063693  0.44837074  0.41068113     0.11700
H678        H  0.55892757  0.37342234  0.41772341     0.08400
H679        H  0.59138099  0.34351208  0.38480279     0.11100
C680        C  0.69998901  0.29075708  0.21765652    -0.03500
C681        C  0.69761228  0.32179105  0.22357242    -0.06100
C682        C  0.67749136  0.33970686  0.20699250    -0.21200
C683        C  0.65961582  0.32695886  0.18369138     0.24500
C684        C  0.66221503  0.29584707  0.17783221    -0.18700
C685        C  0.68232562  0.27794291  0.19452002    -0.08700
C686        C  0.63787354  0.34491266  0.16510914    -0.19000
C687        C  0.63685207  0.37533885  0.16447527    -0.23800
C688        C  0.61608939  0.39257305  0.14428015     0.26600
C689        C  0.62432508  0.42178373  0.13514069    -0.20600
C690        C  0.60638161  0.43802781  0.11464892    -0.10200
C691        C  0.57963786  0.42546017  0.10312809    -0.10800
C692        C  0.57054975  0.39689752  0.11345342    -0.03700
C693        C  0.58854505  0.38060112  0.13387582    -0.18800
H694        H  0.71135636  0.33218798  0.24112693     0.10300
H695        H  0.67600320  0.36331667  0.21291410     0.10400
H696        H  0.64867364  0.28533496  0.16018494     0.10000
H697        H  0.68377421  0.25400714  0.18967056     0.11100
H698        H  0.62301254  0.33228182  0.15011760     0.11200
H699        H  0.65308849  0.38839951  0.17739635     0.13100
H700        H  0.64519392  0.43171601  0.14315448     0.09600
H701        H  0.61384774  0.46010780  0.10723889     0.11700
H702        H  0.54988018  0.38679569  0.10517209     0.08400
H703        H  0.58080327  0.35867588  0.14133492     0.11100
C704        C  0.42497867  0.41394537  0.40494137    -0.03500
C705        C  0.40210181  0.42758955  0.38758984    -0.06100
C706        C  0.38673424  0.41110688  0.36543584    -0.21200
C707        C  0.39354573  0.38061748  0.36074817     0.24500
C708        C  0.41723137  0.36716422  0.37716580    -0.18700
C709        C  0.43301589  0.38384232  0.39903489    -0.08700
C710        C  0.37452869  0.36327869  0.33956937    -0.19000
C711        C  0.36435911  0.33558769  0.34660113    -0.23800
C712        C  0.34126370  0.31984776  0.32815235     0.26600
C713        C  0.33891670  0.28833015  0.33024645    -0.20600
C714        C  0.31786105  0.27280540  0.31248859    -0.10200
C715        C  0.29901509  0.28869274  0.29244306    -0.10800
C716        C  0.30004361  0.32022513  0.29160681    -0.03700
C717        C  0.32091170  0.33573887  0.30936383    -0.18800
H718        H  0.39564807  0.45084100  0.39155834     0.10300
H719        H  0.36861483  0.42182831  0.35282433     0.10400
H720        H  0.42324034  0.34377125  0.37335553     0.10000
H721        H  0.45076687  0.37293214  0.41198386     0.11100
H722        H  0.36650862  0.37492208  0.31932741     0.11200
H723        H  0.37269397  0.32431450  0.36699937     0.13100
H724        H  0.35385138  0.27568460  0.34510036     0.09600
H725        H  0.31700197  0.24840873  0.31359429     0.11700
H726        H  0.28493998  0.33277895  0.27683938     0.08400
H727        H  0.32074078  0.36010541  0.30836997     0.11100
C728        C  0.41067667  0.42728730  0.09538489    -0.03500
C729        C  0.38309373  0.43964128  0.10493864    -0.06100
C730        C  0.36510319  0.42430861  0.12611040    -0.21200
C731        C  0.37427712  0.39635367  0.13813656     0.24500
C732        C  0.40231735  0.38440861  0.12898516    -0.18700
C733        C  0.42033011  0.39983062  0.10802904    -0.08700
C734        C  0.35298829  0.37943334  0.15809072    -0.19000
C735        C  0.36076929  0.35483889  0.17444602    -0.23800
C736        C  0.33900549  0.33582803  0.19162377     0.26600
C737        C  0.35040223  0.31514719  0.21304797    -0.20600
C738        C  0.33109143  0.29578965  0.22878422    -0.10200
C739        C  0.29992924  0.29683983  0.22350612    -0.10800
C740        C  0.28842177  0.31695534  0.20172396    -0.03700
C741        C  0.30773141  0.33633335  0.18588814    -0.18800
H742        H  0.37510167  0.46080689  0.09555577     0.10300
H743        H  0.34360734  0.43401218  0.13259164     0.10400
H744        H  0.41017930  0.36268069  0.13682544     0.10000
H745        H  0.44143692  0.38968757  0.10096645     0.11100
H746        H  0.32996969  0.38762997  0.15897585     0.11200
H747        H  0.38421065  0.34810189  0.17573215     0.13100
H748        H  0.37439032  0.31381376  0.21749257     0.09600
H749        H  0.34051523  0.27974542  0.24484970     0.11700
H750        H  0.26445765  0.31773362  0.19703300     0.08400
H751        H  0.29802162  0.35103256  0.16880382     0.11100
N752        N  0.55363629  0.46890325  0.54151243    -0.06400
N753        N  0.57290816  0.46502128  0.56415727    -0.58500
N754        N  0.53716152  0.44188320  0.97250292    -0.06100
N755        N  0.54393273  0.42028481  0.95285997    -0.60700
N756        N  0.55789930  0.46303918  0.97203397    -0.05700
N757        N  0.57910030  0.45646584  0.95204492    -0.58500
N758        N  0.53281459  0.44781246  0.54200238    -0.05400
N759        N  0.53755657  0.42908251  0.56498021    -0.61000
C760        C  0.56250734  0.44022734  0.57875294     0.95700
C761        C  0.57008399  0.42982493  0.94018819     0.95500
N762        N  0.44572229  0.46318854  0.96408935    -0.06600
N763        N  0.42833694  0.45723911  0.94044816    -0.59100
N764        N  0.46190478  0.44828777  0.53737127    -0.04700
N765        N  0.45517827  0.43030488  0.56038729    -0.60400
N766        N  0.44114278  0.46928477  0.53418105    -0.06600
N767        N  0.41983980  0.46599292  0.55498291    -0.59400
N768        N  0.46632285  0.44207149  0.96745919    -0.04400
N769        N  0.46323237  0.42112855  0.94620455    -0.60500
Mn770      Mn  0.49946424  0.44389926  0.50494083     1.18400
C771        C  0.43952977  0.43103551  0.92946888     0.97800
C772        C  0.42899481  0.44169053  0.57127430     0.98500
N773        N  0.55827059  0.53292439  0.96465757    -0.06700
N774        N  0.57907067  0.53495559  0.94322370    -0.63000
N775        N  0.53288517  0.56020939  0.53108403    -0.05500
N776        N  0.53536644  0.58125452  0.55222169    -0.63600
N777        N  0.55364402  0.53936594  0.53479601    -0.06200
N778        N  0.57088777  0.54583430  0.55846182    -0.63200
N779        N  0.53737232  0.55357781  0.96065529    -0.05100
N780        N  0.54341770  0.57010266  0.93632393    -0.63900
Mn781      Mn  0.55657522  0.50144053  0.00326598     1.10700
C782        C  0.56944630  0.55813600  0.92563664     0.99100
C783        C  0.55908861  0.57194158  0.56917147     0.99100
N784        N  0.44189406  0.54009452  0.52738367    -0.06200
N785        N  0.42151515  0.54736202  0.54811141    -0.61600
N786        N  0.46709636  0.55390725  0.95608950    -0.05500
N787        N  0.46370038  0.57185884  0.93233422    -0.58300
N788        N  0.44561283  0.53353098  0.95688201    -0.06800
N789        N  0.42700334  0.53728874  0.93359227    -0.61100
N790        N  0.46314197  0.56069939  0.52624753    -0.05800
N791        N  0.45782740  0.58235394  0.54615724    -0.58300
Mn792      Mn  0.44256984  0.50145687  0.49592044     1.20200
Mn793      Mn  0.49991082  0.55819301  0.99301730     1.10100
Cl794      Cl  0.49976644  0.50103186  0.49953318    -0.86300
C795        C  0.43188201  0.57372846  0.55969196     0.96100
C796        C  0.43875420  0.56115661  0.91835956     0.95900
N797        N  0.44449113  0.96228750  0.53686797    -0.06400
N798        N  0.42335887  0.94247085  0.54408670    -0.58500
N799        N  0.46260087  0.03209573  0.55768735    -0.06100
N800        N  0.45356177  0.05086967  0.57944086    -0.60700
N801        N  0.44236181  0.03104212  0.53564295    -0.05700
N802        N  0.41938434  0.04890436  0.54198183    -0.58500
N803        N  0.46537074  0.96302524  0.55829629    -0.05400
N804        N  0.45891692  0.94363502  0.58027058    -0.61000
C805        C  0.43277752  0.93076942  0.57110091     0.95700
C806        C  0.42663727  0.06139934  0.56919075     0.95500
N807        N  0.55654314  0.03454699  0.53806149    -0.06600
N808        N  0.57765131  0.05422391  0.54567101    -0.59100
N809        N  0.53754763  0.96505527  0.55981095    -0.04700
N810        N  0.54489517  0.94554652  0.58155899    -0.60400
N811        N  0.55855424  0.96551416  0.53853288    -0.06600
N812        N  0.58036340  0.94633202  0.54531308    -0.59400
N813        N  0.53509785  0.03415726  0.55890479    -0.04400
N814        N  0.54125432  0.05356239  0.58096620    -0.60500
Mn815      Mn  0.50015756  0.99863855  0.55928515     1.18400
C816        C  0.56772536  0.06614090  0.57236687     0.97800
C817        C  0.57159342  0.93380746  0.57208921     0.98500
N818        N  0.44344304  0.03044717  0.96214822    -0.06700
N819        N  0.42152789  0.04911086  0.95397591    -0.63000
N820        N  0.46675696  0.96173156  0.94246205    -0.05500
N821        N  0.46022309  0.94224761  0.92052678    -0.63600
N822        N  0.44541302  0.96162945  0.96340286    -0.06200
N823        N  0.42400749  0.94224795  0.95602651    -0.63200
N824        N  0.46507395  0.03072181  0.94152862    -0.05100
N825        N  0.45839960  0.04960701  0.91917782    -0.63900
Mn826      Mn  0.44362458  0.99636004  0.49968682     1.10700
C827        C  0.43129290  0.06112783  0.92721857     0.99100
C828        C  0.43360374  0.93006514  0.92937934     0.99100
N829        N  0.55979957  0.96506274  0.96480059    -0.06200
N830        N  0.58280490  0.94752026  0.95751005    -0.61600
N831        N  0.53687580  0.03303475  0.94262489    -0.05500
N832        N  0.54373610  0.05208453  0.92041490    -0.58300
N833        N  0.55773769  0.03368492  0.96406845    -0.06800
N834        N  0.57929128  0.05290660  0.95662369    -0.61100
N835        N  0.53907959  0.96414622  0.94324458    -0.05800
N836        N  0.54770764  0.94600039  0.92090894    -0.58300
Mn837      Mn  0.55874283  0.99972547  0.50181342     1.20200
Mn838      Mn  0.50192136  0.99733898  0.94201884     1.10100
Cl839      Cl  0.50120131  0.99807211  0.50084467    -0.86300
C840        C  0.57489328  0.93552397  0.93020509     0.96100
C841        C  0.57014301  0.06450443  0.92951404     0.95900
N842        N  0.96686533  0.55583909  0.53658117    -0.06400
N843        N  0.94769770  0.57791141  0.54230991    -0.58500
N844        N  0.03498535  0.53508997  0.56026298    -0.06100
N845        N  0.05360683  0.54331645  0.58248770    -0.60700
N846        N  0.03571115  0.55503597  0.53796991    -0.05700
N847        N  0.05496188  0.57679812  0.54430361    -0.58500
N848        N  0.96602076  0.53549606  0.55853261    -0.05400
N849        N  0.94624031  0.54358957  0.57971023    -0.61000
C850        C  0.93475393  0.57001371  0.56912113     0.95700
C851        C  0.06617398  0.56925655  0.57197820     0.95500
N852        N  0.03430312  0.44150714  0.53805964    -0.06600
N853        N  0.05412150  0.42011522  0.54426231    -0.59100
N854        N  0.96568261  0.46275640  0.55906489    -0.04700
N855        N  0.94755175  0.45489491  0.58168142    -0.60400
N856        N  0.96542424  0.44192949  0.53751047    -0.06600
N857        N  0.94708988  0.41966279  0.54518857    -0.59400
N858        N  0.03451986  0.46225863  0.55966865    -0.04400
N859        N  0.05442651  0.45512095  0.58106442    -0.60500
Mn860      Mn  0.00027713  0.49885872  0.56008093     1.18400
C861        C  0.06668685  0.42886177  0.57102269     0.97800
C862        C  0.93583225  0.42812136  0.57267185     0.98500
N863        N  0.03690832  0.55453713  0.96577043    -0.06700
N864        N  0.05657588  0.57606621  0.95982982    -0.63000
N865        N  0.96803615  0.53518473  0.94269246    -0.05500
N866        N  0.94999661  0.54368090  0.92014091    -0.63600
N867        N  0.96813382  0.55572886  0.96445382    -0.06200
N868        N  0.95028399  0.57846322  0.95710813    -0.63200
N869        N  0.03703432  0.53414813  0.94385936    -0.05100
N870        N  0.05676502  0.54167951  0.92245341    -0.63900
Mn871      Mn  0.00213750  0.55557517  0.50107015     1.10700
C872        C  0.06903469  0.56777289  0.93288523     0.99100
C873        C  0.93884511  0.57064423  0.92956072     0.99100
N874        N  0.96645947  0.44146248  0.96371863    -0.06200
N875        N  0.94702437  0.42010038  0.95589534    -0.61600
N876        N  0.03594238  0.46163992  0.94358339    -0.05500
N877        N  0.05584740  0.45414636  0.92233491    -0.58300
N878        N  0.03556472  0.44116639  0.96540569    -0.06800
N879        N  0.05542480  0.41969954  0.95969627    -0.61100
N880        N  0.96699649  0.46275463  0.94266260    -0.05800
N881        N  0.94786209  0.45635874  0.92042148    -0.58300
Mn882      Mn  0.00014800  0.44107513  0.50116806     1.20200
Mn883      Mn  0.00199094  0.49838260  0.94260209     1.10100
Cl884      Cl  0.00106784  0.49843911  0.50119427    -0.86300
C885        C  0.93532771  0.42981090  0.92893089     0.96100
C886        C  0.06805050  0.42808084  0.93289164     0.95900
C887        C  0.25643154  0.25720274  0.72319113     0.45200
H888        H  0.25659485  0.26030475  0.69796396    -0.03900
C889        C  0.25602904  0.25002892  0.78206111     0.45200
H890        H  0.25608955  0.24705570  0.80730414    -0.03900
C891        C  0.27911276  0.27735549  0.73991695    -0.17600
C892        C  0.22606561  0.26541343  0.73797429    -0.17300
C893        C  0.26539218  0.22501358  0.73320681    -0.17700
C894        C  0.27895105  0.27345002  0.77105292    -0.17700
C895        C  0.22579466  0.26168060  0.76933613    -0.17200
C896        C  0.26481371  0.22122702  0.76455976    -0.17600
C897        C  0.74362014  0.24991071  0.72095164     0.45200
H898        H  0.74162030  0.24882079  0.69565230    -0.03900
C899        C  0.74753384  0.25161520  0.78004627     0.45200
H900        H  0.74920299  0.25246073  0.80539566    -0.03900
C901        C  0.72045016  0.27101863  0.73578189    -0.17600
C902        C  0.73795521  0.21915819  0.73622751    -0.17300
C903        C  0.77415648  0.26221373  0.73232562    -0.17700
C904        C  0.72246050  0.27178317  0.76708619    -0.17700
C905        C  0.73950018  0.22002656  0.76772584    -0.17200
C906        C  0.77632370  0.26269922  0.76383321    -0.17600
C907        C  0.25273563  0.74902934  0.72102439     0.45200
H908        H  0.25325053  0.75012126  0.69563668    -0.03900
C909        C  0.25186527  0.74645245  0.78029030     0.45200
H910        H  0.25148112  0.74546610  0.80569173    -0.03900
C911        C  0.27469423  0.72571253  0.73441780    -0.17600
C912        C  0.26189682  0.77882935  0.73631013    -0.17300
C913        C  0.22194399  0.73928885  0.73397570    -0.17700
C914        C  0.27434721  0.72449212  0.76580625    -0.17700
C915        C  0.26163928  0.77748998  0.76777776    -0.17200
C916        C  0.22159725  0.73762017  0.76553873    -0.17600
C917        C  0.74596501  0.74828239  0.72204634     0.45200
H918        H  0.74691974  0.75202743  0.69692976    -0.03900
C919        C  0.74427201  0.73967717  0.78057170     0.45200
H920        H  0.74433814  0.73438422  0.80524536    -0.03900
C921        C  0.72177630  0.72569521  0.73176133    -0.17600
C922        C  0.77549558  0.73493486  0.73514947    -0.17300
C923        C  0.73718398  0.77697009  0.74032700    -0.17700
C924        C  0.72078560  0.72125874  0.76275237    -0.17700
C925        C  0.77454838  0.73100122  0.76630124    -0.17200
C926        C  0.73737837  0.77270673  0.77184057    -0.17600
C927        C  0.19992474  0.72274524  0.71413677    -0.03500
C928        C  0.16871214  0.72434163  0.71945547    -0.06100
C929        C  0.14876229  0.70574840  0.70314394    -0.21200
C930        C  0.15953455  0.68547410  0.68092220     0.24500
C931        C  0.19070576  0.68440352  0.67521257    -0.18700
C932        C  0.21054333  0.70285582  0.69147847    -0.08700
C933        C  0.13820458  0.66443113  0.66537177    -0.19000
C934        C  0.14348537  0.65283289  0.63734512    -0.23800
C935        C  0.12308832  0.63115123  0.62161644     0.26600
C936        C  0.12204596  0.63136072  0.58956265    -0.20600
C937        C  0.10381632  0.61098440  0.57368332    -0.10200
C938        C  0.08672499  0.58930009  0.58941903    -0.10800
C939        C  0.08821872  0.58849215  0.62153182    -0.03700
C940        C  0.10608344  0.60939579  0.63754001    -0.18800
H941        H  0.15987916  0.73938724  0.73680354     0.10300
H942        H  0.12487977  0.70694289  0.70813995     0.10400
H943        H  0.20009249  0.66845742  0.65906326     0.10000
H944        H  0.23440314  0.70039788  0.68715252     0.11100
H945        H  0.11725664  0.65902541  0.67697823     0.11200
H946        H  0.16291535  0.66062408  0.62449920     0.13100
H947        H  0.13514212  0.64763690  0.57673087     0.09600
H948        H  0.10313629  0.61217401  0.54894756     0.11700
H949        H  0.07515621  0.57212346  0.63424899     0.08400
H950        H  0.10695888  0.60817894  0.66224778     0.11100
C951        C  0.08973963  0.58750576  0.91519139    -0.03500
C952        C  0.10126390  0.61390007  0.92858513    -0.06100
C953        C  0.11850922  0.63418892  0.91146096    -0.21200
C954        C  0.12477298  0.62878347  0.88043893     0.24500
C955        C  0.11367877  0.60195933  0.86711444    -0.18700
C956        C  0.09648114  0.58153207  0.88437931    -0.08700
C957        C  0.14186808  0.65237084  0.86307404    -0.19000
C958        C  0.15274434  0.64892256  0.83443844    -0.23800
C959        C  0.16972484  0.67269902  0.81730244     0.26600
C960        C  0.18657831  0.66386196  0.79163151    -0.18200
C961        C  0.20281099  0.68500780  0.77462118    -0.10200
C962        C  0.20216651  0.71577646  0.78241147    -0.10800
C963        C  0.18555478  0.72483675  0.80809411    -0.03700
C964        C  0.16922664  0.70360710  0.82525271    -0.18800
H965        H  0.09649608  0.61921072  0.95227552     0.10300
H966        H  0.12663924  0.65451448  0.92247892     0.10400
H967        H  0.11739668  0.59680916  0.84326691     0.10000
H968        H  0.08772254  0.56149619  0.87335092     0.11100
H969        H  0.14615117  0.67338046  0.87502192     0.11200
H970        H  0.15021834  0.62735245  0.82304835     0.13100
H971        H  0.18758927  0.64034039  0.78493169     0.09600
H972        H  0.21644731  0.67720617  0.75565766     0.11700
H973        H  0.18524091  0.74835059  0.81485794     0.08400
H974        H  0.15613695  0.71167093  0.84441994     0.11100
C975        C  0.08950205  0.40882123  0.91579987    -0.03500
C976        C  0.10782964  0.38823908  0.93163051    -0.06100
C977        C  0.12678315  0.36848735  0.91572757    -0.21200
C978        C  0.12724486  0.36824361  0.88363168     0.24500
C979        C  0.10911290  0.38910199  0.86769459    -0.18700
C980        C  0.09057045  0.40936287  0.88368726    -0.08700
C981        C  0.14782497  0.34676080  0.86780530    -0.19000
C982        C  0.14269119  0.33549893  0.83960695    -0.23800
C983        C  0.16380252  0.31430709  0.82392504     0.26600
C984        C  0.15291839  0.29532956  0.80063325    -0.20600
C985        C  0.17262591  0.27674893  0.78400518    -0.10200
C986        C  0.20376008  0.27722589  0.78994118    -0.10800
C987        C  0.21446435  0.29556678  0.81384598    -0.03700
C988        C  0.19483191  0.31393313  0.83052434    -0.18800
H989        H  0.10748348  0.38740809  0.95638670     0.10300
H990        H  0.14077691  0.35294501  0.92856525     0.10400
H991        H  0.10949183  0.39008982  0.84297242     0.10000
H992        H  0.07654650  0.42494317  0.87094515     0.11100
H993        H  0.16713196  0.33876576  0.88073139     0.11200
H994        H  0.12187026  0.34120687  0.82788851     0.13100
H995        H  0.12915106  0.29522964  0.79497041     0.09600
H996        H  0.16373191  0.26285474  0.76574418     0.11700
H997        H  0.23831599  0.29706032  0.81871508     0.08400
H998        H  0.20436637  0.32879102  0.84759335     0.11100
C999        C  0.08823830  0.40991300  0.58862216    -0.03500
C1000       C  0.09973708  0.38323675  0.57573470    -0.06100
C1001       C  0.11840233  0.36407578  0.59273685    -0.21200
C1002       C  0.12598805  0.37086232  0.62316687     0.24500
C1003       C  0.11505876  0.39805491  0.63587846    -0.18700
C1004       C  0.09639319  0.41730942  0.61875742    -0.08700
C1005       C  0.14532489  0.34887378  0.64028373    -0.19000
C1006       C  0.15045896  0.34972540  0.67070604    -0.23800
C1007       C  0.16978600  0.32743667  0.68719282     0.26600
C1008       C  0.18393357  0.33647672  0.71439629    -0.20600
C1009       C  0.20207923  0.31640392  0.73082990    -0.10200
C1010       C  0.20554844  0.28633838  0.72116157    -0.10800
C1011       C  0.19169596  0.27721879  0.69384379    -0.03700
C1012       C  0.17384363  0.29748749  0.67704203    -0.18800
H1013       H  0.09400375  0.37691302  0.55252655     0.10300
H1014       H  0.12659072  0.34354483  0.58213697     0.10400
H1015       H  0.12073354  0.40479205  0.65889927     0.10000
H1016       H  0.08797103  0.43777019  0.62928932     0.11100
H1017       H  0.15568097  0.33097781  0.62697871     0.11200
H1018       H  0.14094825  0.36776050  0.68435794     0.13100
H1019       H  0.18139495  0.35937866  0.72268008     0.09600
H1020       H  0.21369257  0.32451825  0.75099312     0.11700
H1021       H  0.19464174  0.25435721  0.68558156     0.08400
H1022       H  0.16290002  0.28945282  0.65650070     0.11100
C1023       C  0.79433836  0.27917168  0.71084309    -0.03500
C1024       C  0.78142956  0.29526476  0.68632404    -0.06100
C1025       C  0.79932709  0.31130884  0.66578875    -0.21200
C1026       C  0.83060194  0.31265015  0.66959636     0.24500
C1027       C  0.84384243  0.29685502  0.69414113    -0.18700
C1028       C  0.82587537  0.27997400  0.71438290    -0.08700
C1029       C  0.84846595  0.33035261  0.64710759    -0.19000
C1030       C  0.87239996  0.34728770  0.65495595    -0.23800
C1031       C  0.88761066  0.36798338  0.63300526     0.26600
C1032       C  0.89907704  0.39551245  0.64372374    -0.20600
C1033       C  0.91370415  0.41548169  0.62386413    -0.10200
C1034       C  0.91783160  0.40807147  0.59288099    -0.10800
C1035       C  0.90639486  0.38045319  0.58208095    -0.03700
C1036       C  0.89128820  0.36066373  0.60188631    -0.18800
H1037       H  0.75727958  0.29604275  0.68308956     0.10300
H1038       H  0.78856356  0.32333819  0.64716190     0.10400
H1039       H  0.86803944  0.29707063  0.69731274     0.10000
H1040       H  0.83663035  0.26751663  0.73268341     0.11100
H1041       H  0.83966243  0.33199478  0.62396856     0.11200
H1042       H  0.87926534  0.34817250  0.67880016     0.13100
H1043       H  0.89656932  0.40166764  0.66757078     0.09600
H1044       H  0.92240735  0.43645344  0.63297514     0.11700
H1045       H  0.90945305  0.37396890  0.55839904     0.08400
H1046       H  0.88317587  0.33936353  0.59300690     0.11100
C1047       C  0.91429461  0.41221121  0.90914549    -0.03500
C1048       C  0.90220699  0.42535180  0.88256591    -0.06100
C1049       C  0.88359322  0.40872788  0.86291178    -0.21200
C1050       C  0.87680548  0.37832606  0.86891175     0.24500
C1051       C  0.88849309  0.36521314  0.89584222    -0.18700
C1052       C  0.90697953  0.38200237  0.91571587    -0.08700
C1053       C  0.85689943  0.36172206  0.84684894    -0.19000
C1054       C  0.85585322  0.33130934  0.84404585    -0.23800
C1055       C  0.83623792  0.31445131  0.82179993     0.26600
C1056       C  0.83328721  0.28300346  0.82526348    -0.20600
C1057       C  0.81467789  0.26614507  0.80576298    -0.10200
C1058       C  0.79896538  0.28015396  0.78183258    -0.10800
C1059       C  0.80206382  0.31147304  0.77789863    -0.03700
C1060       C  0.82058845  0.32843732  0.79747554    -0.18800
H1061       H  0.90725751  0.44857156  0.87681508     0.10300
H1062       H  0.87476590  0.41962568  0.84260948     0.10400
H1063       H  0.88319309  0.34216801  0.90191397     0.10000
H1064       H  0.91582995  0.37122000  0.93604955     0.11100
H1065       H  0.84317831  0.37556777  0.83189742     0.11200
H1066       H  0.87003343  0.31772564  0.85886549     0.13100
H1067       H  0.84498770  0.27144076  0.84359248     0.09600
H1068       H  0.81218131  0.24213129  0.80963225     0.11700
H1069       H  0.78951208  0.32296007  0.76010171     0.08400
H1070       H  0.82231762  0.35238988  0.79334588     0.11100
C1071       C  0.79502558  0.71007228  0.78320641    -0.03500
C1072       C  0.78319772  0.68342241  0.79571736    -0.06100
C1073       C  0.80163640  0.66328187  0.81157584    -0.21200
C1074       C  0.83222485  0.66962653  0.81618080     0.24500
C1075       C  0.84430709  0.69633414  0.80366252    -0.18700
C1076       C  0.82584512  0.71625304  0.78696414    -0.08700
C1077       C  0.85066665  0.64731385  0.83344839    -0.19000
C1078       C  0.87335234  0.65501232  0.85235731    -0.23800
C1079       C  0.88941961  0.63259806  0.87195269     0.26600
C1080       C  0.90124949  0.64198659  0.90015246    -0.20600
C1081       C  0.91648987  0.62162717  0.91916700    -0.10200
C1082       C  0.92078619  0.59144403  0.91016649    -0.10800
C1083       C  0.90915113  0.58201731  0.88184774    -0.03700
C1084       C  0.89355617  0.60232674  0.86295935    -0.18800
H1085       H  0.75965405  0.67789648  0.79286883     0.10300
H1086       H  0.79181901  0.64279414  0.82070845     0.10400
H1087       H  0.86799287  0.70153311  0.80630851     0.10000
H1088       H  0.83547095  0.73657707  0.77729799     0.11100
H1089       H  0.84330874  0.62395247  0.83274861     0.11200
H1090       H  0.87869410  0.67874692  0.85544948     0.13100
H1091       H  0.89852395  0.66515422  0.90760299     0.09600
H1092       H  0.92538900  0.62970777  0.94072184     0.11700
H1093       H  0.91236375  0.55900566  0.87414376     0.08400
H1094       H  0.88539032  0.59443145  0.84106299     0.11100
C1095       C  0.79363956  0.71397430  0.71584478    -0.03500
C1096       C  0.78726873  0.68293981  0.71653579    -0.06100
C1097       C  0.80409468  0.66260762  0.69913418    -0.21200
C1098       C  0.82758173  0.67269161  0.68026429     0.24500
C1099       C  0.83383714  0.70394930  0.67929968    -0.18700
C1100       C  0.81683235  0.72440860  0.69685919    -0.08700
C1101       C  0.84525515  0.64957394  0.66297499    -0.19000
C1102       C  0.86272208  0.65565067  0.63851999    -0.23800
C1103       C  0.87967994  0.63217252  0.62097670     0.26600
C1104       C  0.88892383  0.63897158  0.59107380    -0.20600
C1105       C  0.90589998  0.61834515  0.57403907    -0.10200
C1106       C  0.91438720  0.59037229  0.58655361    -0.10800
C1107       C  0.90491429  0.58325109  0.61635276    -0.03700
C1108       C  0.88781113  0.60393028  0.63344989    -0.18800
H1109       H  0.76911004  0.67441932  0.73063274     0.10300
H1110       H  0.79865284  0.63880595  0.70040602     0.10400
H1111       H  0.85211612  0.71269948  0.66560246     0.10000
H1112       H  0.82204864  0.74826090  0.69598197     0.11100
H1113       H  0.84244167  0.62626340  0.67001564     0.11200
H1114       H  0.86367949  0.67858146  0.62987850     0.13100
H1115       H  0.88315034  0.66049602  0.58085954     0.09600
H1116       H  0.91288676  0.62461625  0.55118258     0.11700
H1117       H  0.91134670  0.56201262  0.62673585     0.08400
H1118       H  0.88187733  0.59798255  0.65665577     0.11100
C1119       C  0.72386572  0.19766470  0.78797334    -0.03500
C1120       C  0.70303972  0.20801938  0.80987291    -0.06100
C1121       C  0.68598169  0.18785229  0.82718154    -0.21200
C1122       C  0.68940501  0.15658874  0.82338595     0.24500
C1123       C  0.71100990  0.14601081  0.80237827    -0.18700
C1124       C  0.72789232  0.16634848  0.78459993    -0.08700
C1125       C  0.67142581  0.13495469  0.84206137    -0.19000
C1126       C  0.64287407  0.14089893  0.85099716    -0.23800
C1127       C  0.62480472  0.12061473  0.87099366     0.26600
C1128       C  0.59330155  0.11999687  0.86771189    -0.20600
C1129       C  0.57552126  0.10181778  0.88672100    -0.10200
C1130       C  0.58880293  0.08458931  0.91007924    -0.10800
C1131       C  0.62026071  0.08577377  0.91390818    -0.03700
C1132       C  0.63812612  0.10339083  0.89440480    -0.18800
H1133       H  0.69921478  0.23182874  0.81329039     0.10300
H1134       H  0.67029511  0.19686957  0.84381701     0.10400
H1135       H  0.71440045  0.12199036  0.79931788     0.10000
H1136       H  0.74386062  0.15766747  0.76805448     0.11100
H1137       H  0.68160637  0.11339028  0.84782628     0.11200
H1138       H  0.63175881  0.16108465  0.84249305     0.13100
H1139       H  0.58244412  0.13338046  0.85013611     0.09600
H1140       H  0.55134441  0.10140207  0.88330524     0.11700
H1141       H  0.63112591  0.07267563  0.93168390     0.08400
H1142       H  0.66225061  0.10398058  0.89806852     0.11100
C1143       C  0.58565742  0.08661042  0.59213692    -0.03500
C1144       C  0.57432257  0.09574825  0.62066280    -0.06100
C1145       C  0.59173724  0.11350124  0.64031017    -0.21200
C1146       C  0.62105037  0.12227348  0.63217022     0.24500
C1147       C  0.63229447  0.11363480  0.60334600    -0.18700
C1148       C  0.61473261  0.09598224  0.58353402    -0.08700
C1149       C  0.63854147  0.14112026  0.65410241    -0.19000
C1150       C  0.66895079  0.14147381  0.65570300    -0.23800
C1151       C  0.68648112  0.15985146  0.67824545     0.26600
C1152       C  0.71753779  0.16407337  0.67335371    -0.20600
C1153       C  0.73462483  0.18221554  0.69306894    -0.10200
C1154       C  0.72114787  0.19606039  0.71843984    -0.10800
C1155       C  0.69031996  0.19141616  0.72383689    -0.03700
C1156       C  0.67322791  0.17327291  0.70424168    -0.18800
H1157       H  0.55204156  0.08891142  0.62799943     0.10300
H1158       H  0.58241209  0.12003508  0.66223361     0.10400
H1159       H  0.65443128  0.12071891  0.59586601     0.10000
H1160       H  0.62403020  0.08941318  0.56162875     0.11100
H1161       H  0.62538795  0.15441144  0.67002997     0.11200
H1162       H  0.68177730  0.12782971  0.63970345     0.13100
H1163       H  0.72847649  0.15396133  0.65371466     0.09600
H1164       H  0.75822778  0.18606993  0.68811342     0.11700
H1165       H  0.67917777  0.20266792  0.74271133     0.08400
H1166       H  0.64970168  0.17021280  0.70965320     0.11100
C1167       C  0.28371603  0.20568936  0.71214465    -0.03500
C1168       C  0.30649941  0.21919489  0.69448833    -0.06100
C1169       C  0.32610694  0.20178344  0.67690511    -0.21200
C1170       C  0.32307884  0.17038727  0.67568910     0.24500
C1171       C  0.29974956  0.15661355  0.69253288    -0.18700
C1172       C  0.28036584  0.17415115  0.71084765    -0.08700
C1173       C  0.34591445  0.15293998  0.65812388    -0.19000
C1174       C  0.33967200  0.12757669  0.64247589    -0.23800
C1175       C  0.36274149  0.11175650  0.62357884     0.26600
C1176       C  0.35386934  0.09767393  0.59631921    -0.20600
C1177       C  0.37489220  0.08223357  0.57827810    -0.10200
C1178       C  0.40521719  0.07986691  0.58745609    -0.10800
C1179       C  0.41415137  0.09386616  0.61482249    -0.03700
C1180       C  0.39317497  0.10982561  0.63262723    -0.18800
H1181       H  0.31005289  0.24327673  0.69501373     0.10300
H1182       H  0.34392644  0.21293889  0.66429753     0.10400
H1183       H  0.29718452  0.13232720  0.69242042     0.10000
H1184       H  0.26313565  0.16312678  0.72435007     0.11100
H1185       H  0.36830107  0.16269018  0.65617685     0.11200
H1186       H  0.31659499  0.11941542  0.64169490     0.13100
H1187       H  0.33059248  0.09874266  0.58887858     0.09600
H1188       H  0.36719496  0.07154584  0.55742385     0.11700
H1189       H  0.43727828  0.09225123  0.62259841     0.08400
H1190       H  0.40062474  0.11995851  0.65384073     0.11100
C1191       C  0.41334724  0.08144481  0.90719393    -0.03500
C1192       C  0.42629138  0.09351698  0.88054963    -0.06100
C1193       C  0.40939283  0.11182960  0.86089796    -0.21200
C1194       C  0.37899416  0.11828289  0.86706918     0.24500
C1195       C  0.36601848  0.10638695  0.89391596    -0.18700
C1196       C  0.38305372  0.08817463  0.91374272    -0.08700
C1197       C  0.36225103  0.13828736  0.84541277    -0.19000
C1198       C  0.33190605  0.13914028  0.84280992    -0.23800
C1199       C  0.31515890  0.15914794  0.82104717     0.26600
C1200       C  0.28411674  0.16374809  0.82566238    -0.20600
C1201       C  0.26752911  0.18279887  0.80637411    -0.10200
C1202       C  0.28145928  0.19736239  0.78167646    -0.10800
C1203       C  0.31244246  0.19273898  0.77685502    -0.03700
C1204       C  0.32903481  0.17358512  0.79599833    -0.18800
H1205       H  0.44957220  0.08878592  0.87481638     0.10300
H1206       H  0.42009713  0.12080688  0.84057650     0.10400
H1207       H  0.34294863  0.11143136  0.90004735     0.10000
H1208       H  0.37245622  0.07921980  0.93410988     0.11100
H1209       H  0.37592444  0.15248327  0.83078939     0.11200
H1210       H  0.31839812  0.12474517  0.85744401     0.13100
H1211       H  0.27273980  0.15304648  0.84470420     0.09600
H1212       H  0.24388602  0.18672175  0.81112536     0.11700
H1213       H  0.32416175  0.20478107  0.75891723     0.08400
H1214       H  0.35266729  0.17047735  0.79099894     0.11100
C1215       C  0.59096786  0.91300154  0.59030330    -0.03500
C1216       C  0.61826657  0.90236589  0.57804652    -0.06100
C1217       C  0.63787263  0.88466061  0.59561730    -0.21200
C1218       C  0.63096967  0.87714380  0.62604498     0.24500
C1219       C  0.60314435  0.88710332  0.63811682    -0.18700
C1220       C  0.58342262  0.90481288  0.62040671    -0.08700
C1221       C  0.65356326  0.85893944  0.64378062    -0.19000
C1222       C  0.65225345  0.85338426  0.67414917    -0.23800
C1223       C  0.67503130  0.83479221  0.69100776     0.26600
C1224       C  0.66595723  0.81954735  0.71759404    -0.20600
C1225       C  0.68620456  0.80135944  0.73383643    -0.10200
C1226       C  0.71651939  0.79884956  0.72467894    -0.10800
C1227       C  0.72578568  0.81424494  0.69822929    -0.03700
C1228       C  0.70534467  0.83215170  0.68161638    -0.18800
H1229       H  0.62476000  0.90809631  0.55489744     0.10300
H1230       H  0.65886465  0.87719613  0.58544801     0.10400
H1231       H  0.59633143  0.88146902  0.66111504     0.10000
H1232       H  0.56249278  0.91253835  0.63048487     0.11100
H1233       H  0.67232458  0.84966017  0.63091149     0.11200
H1234       H  0.63333399  0.86168359  0.68735668     0.13100
H1235       H  0.64282556  0.82103836  0.72537670     0.09600
H1236       H  0.67796838  0.78874004  0.75332523     0.11700
H1237       H  0.74881420  0.81217346  0.69028646     0.08400
H1238       H  0.71344288  0.84402512  0.66163137     0.11100
C1239       C  0.72526941  0.79472901  0.79535092    -0.03500
C1240       C  0.71446420  0.78433518  0.82389213    -0.06100
C1241       C  0.70063764  0.80377237  0.84462232    -0.21200
C1242       C  0.69639513  0.83414172  0.83746173     0.24500
C1243       C  0.70836210  0.84538681  0.80997575    -0.18700
C1244       C  0.72335795  0.82602155  0.78953767    -0.08700
C1245       C  0.67903027  0.85308370  0.85917632    -0.19000
C1246       C  0.65788641  0.87280733  0.84982638    -0.23800
C1247       C  0.63683086  0.88813014  0.87131077     0.26600
C1248       C  0.60789459  0.89593940  0.86099646    -0.20600
C1249       C  0.58744466  0.91045990  0.88042731    -0.10200
C1250       C  0.59565235  0.91787740  0.91053630    -0.10800
C1251       C  0.62462116  0.91006683  0.92093383    -0.03700
C1252       C  0.64501488  0.89532924  0.90155309    -0.18800
H1253       H  0.71530700  0.76102718  0.83060761     0.10300
H1254       H  0.69198911  0.79467332  0.86588782     0.10400
H1255       H  0.70623729  0.86909548  0.80438556     0.10000
H1256       H  0.73280418  0.83555939  0.76890465     0.11100
H1257       H  0.68085718  0.84765421  0.88332325     0.11200
H1258       H  0.65400775  0.87562966  0.82545081     0.13100
H1259       H  0.60104115  0.89067963  0.83781992     0.09600
H1260       H  0.56537262  0.91635181  0.87167347     0.11700
H1261       H  0.63171928  0.91578845  0.94391011     0.08400
H1262       H  0.66735592  0.89026582  0.91009347     0.11100
C1263       C  0.41506872  0.90975806  0.91003514    -0.03500
C1264       C  0.42746021  0.89609081  0.88392310    -0.06100
C1265       C  0.40959248  0.87810552  0.86483499    -0.21200
C1266       C  0.37880665  0.87401016  0.87097762     0.24500
C1267       C  0.36638264  0.88746419  0.89723777    -0.18700
C1268       C  0.38440224  0.90498657  0.91668477    -0.08700
C1269       C  0.36071762  0.85420618  0.85057679    -0.19000
C1270       C  0.33136859  0.85905766  0.84409646    -0.23800
C1271       C  0.31362687  0.83826201  0.82430769     0.26600
C1272       C  0.29067216  0.84961939  0.80529516    -0.20600
C1273       C  0.27363799  0.83010821  0.78677776    -0.10200
C1274       C  0.27875972  0.79882973  0.78764938    -0.10800
C1275       C  0.30135127  0.78754551  0.80709112    -0.03700
C1276       C  0.31865880  0.80697025  0.82505838    -0.18800
H1277       H  0.45099315  0.89931001  0.87823050     0.10300
H1278       H  0.41975568  0.86766955  0.84494361     0.10400
H1279       H  0.34290265  0.88405617  0.90302012     0.10000
H1280       H  0.37420169  0.91518206  0.93667536     0.11100
H1281       H  0.37243703  0.83569043  0.83941929     0.11200
H1282       H  0.32034415  0.87928756  0.85260915     0.13100
H1283       H  0.28620872  0.87364396  0.80448984     0.09600
H1284       H  0.25640249  0.83935030  0.77192785     0.11700
H1285       H  0.30606134  0.76361097  0.80809764     0.08400
H1286       H  0.33565168  0.79736932  0.83994531     0.11100
C1287       C  0.41478036  0.91003201  0.59054669    -0.03500
C1288       C  0.42748898  0.89753295  0.61711528    -0.06100
C1289       C  0.41017679  0.87960700  0.63672732    -0.21200
C1290       C  0.37959175  0.87408498  0.63061938     0.24500
C1291       C  0.36694745  0.88610174  0.60365596    -0.18700
C1292       C  0.38441679  0.90381550  0.58381094    -0.08700
C1293       C  0.36217472  0.85501643  0.65253262    -0.19000
C1294       C  0.33191416  0.85626548  0.65593051    -0.23800
C1295       C  0.31445686  0.83731115  0.67805303     0.26600
C1296       C  0.28315047  0.83430688  0.67388816    -0.20600
C1297       C  0.26591861  0.81616105  0.69346894    -0.10200
C1298       C  0.27946548  0.80112831  0.71810531    -0.10800
C1299       C  0.31066094  0.80429844  0.72262117    -0.03700
C1300       C  0.32793898  0.82236917  0.70305366    -0.18800
H1301       H  0.45083390  0.90180518  0.62290997     0.10300
H1302       H  0.42063632  0.87040719  0.65709572     0.10400
H1303       H  0.34374525  0.88164312  0.59758547     0.10000
H1304       H  0.37400416  0.91306531  0.56345516     0.11100
H1305       H  0.37526019  0.83986828  0.66677891     0.11200
H1306       H  0.31904495  0.87163346  0.64166139     0.13100
H1307       H  0.27205385  0.84552944  0.65496470     0.09600
H1308       H  0.24203396  0.81346821  0.68912193     0.11700
H1309       H  0.32185787  0.79209782  0.74083501     0.08400
H1310       H  0.35175756  0.82439711  0.70775835     0.11100
C1311       C  0.42389951  0.57674564  0.89271018    -0.03500
C1312       C  0.43798002  0.60161730  0.87888839    -0.06100
C1313       C  0.42244801  0.61920511  0.85764604    -0.21200
C1314       C  0.39249621  0.61248052  0.85016101     0.24500
C1315       C  0.37901731  0.58646490  0.86249198    -0.18700
C1316       C  0.39464805  0.56872351  0.88363025    -0.08700
C1317       C  0.37578316  0.63367552  0.83029815    -0.19000
C1318       C  0.34607470  0.63889049  0.83377626    -0.23800
C1319       C  0.32875476  0.66203215  0.81653187     0.26600
C1320       C  0.29791858  0.66536911  0.82309601    -0.20600
C1321       C  0.28039719  0.68635195  0.80725187    -0.10200
C1322       C  0.29336439  0.70416189  0.78434445    -0.10800
C1323       C  0.32431199  0.70183506  0.77848382    -0.03700
C1324       C  0.34185996  0.68085528  0.79421204    -0.18800
H1325       H  0.46065725  0.60811303  0.88525083     0.10300
H1326       H  0.43340555  0.63889541  0.84806821     0.10400
H1327       H  0.35631187  0.58004942  0.85622900     0.10000
H1328       H  0.38344309  0.54942643  0.89368373     0.11100
H1329       H  0.38909403  0.64685194  0.81448212     0.11200
H1330       H  0.33383717  0.62630808  0.85107716     0.13100
H1331       H  0.28724365  0.65145919  0.84033129     0.09600
H1332       H  0.25657904  0.68804997  0.81232923     0.11700
H1333       H  0.33481317  0.71598178  0.76134080     0.08400
H1334       H  0.36544439  0.67965422  0.78837694     0.11100
C1335       C  0.29195202  0.70493253  0.71474480    -0.03500
C1336       C  0.29083998  0.67371195  0.71988830    -0.06100
C1337       C  0.30749144  0.65411152  0.70160535    -0.21200
C1338       C  0.32523664  0.66532649  0.67766716     0.24500
C1339       C  0.32533402  0.69659515  0.67176313    -0.18700
C1340       C  0.30882558  0.71622730  0.69027380    -0.08700
C1341       C  0.34233010  0.64354774  0.65877526    -0.19000
C1342       C  0.36656152  0.65128790  0.64211153    -0.23800
C1343       C  0.38340983  0.62984041  0.62250411     0.26600
C1344       C  0.41188053  0.63850564  0.61173672    -0.20600
C1345       C  0.42797074  0.61987088  0.59190221    -0.10200
C1346       C  0.41580715  0.59220810  0.58235617    -0.10800
C1347       C  0.38758127  0.58319324  0.59341290    -0.03700
C1348       C  0.37139073  0.60188685  0.61315438    -0.18800
H1349       H  0.27703261  0.66449486  0.73803786     0.10300
H1350       H  0.30657401  0.63011020  0.70622846     0.10400
H1351       H  0.33767759  0.70601015  0.65271778     0.10000
H1352       H  0.30940409  0.74024408  0.68565542     0.11100
H1353       H  0.33527012  0.62017121  0.65989405     0.11200
H1354       H  0.37510700  0.67418887  0.64337262     0.13100
H1355       H  0.42158379  0.65994547  0.61841897     0.09600
H1356       H  0.44971855  0.62738360  0.58364765     0.11700
H1357       H  0.37765013  0.56203971  0.58619680     0.08400
H1358       H  0.34920728  0.59458137  0.62008355     0.11100
C1359       C  0.58665083  0.57062319  0.89981483    -0.03500
C1360       C  0.61664235  0.56170746  0.89487076    -0.06100
C1361       C  0.63400041  0.57589611  0.87247730    -0.21200
C1362       C  0.62168372  0.59921725  0.85476080     0.24500
C1363       C  0.59107617  0.60677913  0.85841762    -0.18700
C1364       C  0.57379123  0.59273970  0.88092628    -0.08700
C1365       C  0.64159326  0.61604665  0.83366395    -0.19000
C1366       C  0.63717627  0.64545565  0.82753525    -0.23800
C1367       C  0.65850723  0.66408031  0.80971698     0.26600
C1368       C  0.65828807  0.69538006  0.81444835    -0.20600
C1369       C  0.67843506  0.71387723  0.79887193    -0.10200
C1370       C  0.69913450  0.70139736  0.77833938    -0.10800
C1371       C  0.69885156  0.67029045  0.77261842    -0.03700
C1372       C  0.67863903  0.65166953  0.78820091    -0.18800
H1373       H  0.62701999  0.54453405  0.90901938     0.10300
H1374       H  0.65742634  0.56945958  0.86980725     0.10400
H1375       H  0.58051706  0.62379038  0.84424083     0.10000
H1376       H  0.55052817  0.59958400  0.88391554     0.11100
H1377       H  0.66188193  0.60480925  0.82569882     0.11200
H1378       H  0.61843836  0.65720349  0.83822992     0.13100
H1379       H  0.64263179  0.70554245  0.83045654     0.09600
H1380       H  0.67744523  0.73799062  0.80239909     0.11700
H1381       H  0.71441047  0.66048079  0.75630839     0.08400
H1382       H  0.67871451  0.62777945  0.78314347     0.11100
C1383       C  0.70158299  0.71080468  0.70964576    -0.03500
C1384       C  0.71380690  0.69547662  0.68457627    -0.06100
C1385       C  0.69530422  0.67816510  0.66575221    -0.21200
C1386       C  0.66421024  0.67624600  0.67139467     0.24500
C1387       C  0.65171715  0.69344998  0.69536465    -0.18700
C1388       C  0.67032128  0.71066132  0.71423027    -0.08700
C1389       C  0.64631243  0.65519941  0.65233644    -0.19000
C1390       C  0.61673869  0.64965701  0.65600197    -0.23800
C1391       C  0.60093693  0.62785582  0.63624052     0.26600
C1392       C  0.57174231  0.63450151  0.62607648    -0.20600
C1393       C  0.55758772  0.61569456  0.60490734    -0.10200
C1394       C  0.57230537  0.58971625  0.59411771    -0.10800
C1395       C  0.60068870  0.58200191  0.60589430    -0.03700
C1396       C  0.61495182  0.60096418  0.62677543    -0.18800
H1397       H  0.73778553  0.69592567  0.68019318     0.10300
H1398       H  0.70549139  0.66555725  0.64719426     0.10400
H1399       H  0.62788611  0.69342883  0.70027428     0.10000
H1400       H  0.66038127  0.72333985  0.73285881     0.11100
H1401       H  0.65833545  0.64330539  0.63432335     0.11200
H1402       H  0.60327747  0.66211987  0.67233761     0.13100
H1403       H  0.56044309  0.65491421  0.63350800     0.09600
H1404       H  0.53550689  0.62189578  0.59638983     0.11700
H1405       H  0.61232769  0.56188807  0.59818976     0.08400
H1406       H  0.63709330  0.59481995  0.63515701     0.11100
C1407       C  0.70130753  0.28803061  0.78721510    -0.03500
C1408       C  0.67007860  0.28494605  0.78319336    -0.06100
C1409       C  0.65013710  0.29995950  0.80259473    -0.21200
C1410       C  0.66111067  0.31826549  0.82624813     0.24500
C1411       C  0.69245823  0.32028771  0.83096657    -0.18700
C1412       C  0.71236405  0.30530083  0.81152212    -0.08700
C1413       C  0.63932084  0.33464639  0.84576363    -0.19000
C1414       C  0.64643461  0.36055295  0.86001228    -0.23800
C1415       C  0.62527293  0.37793975  0.87938419     0.26600
C1416       C  0.63270449  0.40787654  0.88647429    -0.20600
C1417       C  0.61433862  0.42492404  0.90569097    -0.10200
C1418       C  0.58814544  0.41231378  0.91827766    -0.10800
C1419       C  0.58037341  0.38249972  0.91100075    -0.03700
C1420       C  0.59885958  0.36533209  0.89185863    -0.18800
H1421       H  0.66115583  0.27073837  0.76518366     0.10300
H1422       H  0.62610648  0.29756546  0.79891281     0.10400
H1423       H  0.70173500  0.33309792  0.84979695     0.10000
H1424       H  0.73641142  0.30734679  0.81531735     0.11100
H1425       H  0.61647979  0.32599947  0.84673337     0.11200
H1426       H  0.66856134  0.37036811  0.85639343     0.13100
H1427       H  0.65296821  0.41807258  0.87730098     0.09600
H1428       H  0.62087463  0.44788070  0.91098705     0.11700
H1429       H  0.56042451  0.37219580  0.92071067     0.08400
H1430       H  0.59269954  0.34210644  0.88771014     0.11100
C1431       C  0.69969498  0.28994328  0.71748139    -0.03500
C1432       C  0.69765062  0.32103322  0.72304395    -0.06100
C1433       C  0.67802157  0.33901570  0.70599421    -0.21200
C1434       C  0.66021212  0.32623853  0.68264067     0.24500
C1435       C  0.66264643  0.29506896  0.67700488    -0.18700
C1436       C  0.68230803  0.27710583  0.69415057    -0.08700
C1437       C  0.63881418  0.34419225  0.66365863    -0.19000
C1438       C  0.63594122  0.37447632  0.66488172    -0.23800
C1439       C  0.61535850  0.39161108  0.64450846     0.26600
C1440       C  0.62274565  0.42144180  0.63681994    -0.20600
C1441       C  0.60496921  0.43769603  0.61620232    -0.10200
C1442       C  0.57920103  0.42451448  0.60322022    -0.10800
C1443       C  0.57086454  0.39526658  0.61215143    -0.03700
C1444       C  0.58875685  0.37892976  0.63260506    -0.18800
H1445       H  0.71136618  0.33144764  0.74061424     0.10300
H1446       H  0.67704065  0.36271580  0.71155550     0.10400
H1447       H  0.64926757  0.28453973  0.65923849     0.10000
H1448       H  0.68365489  0.25313212  0.68947171     0.11100
H1449       H  0.62551034  0.33175433  0.64706323     0.11200
H1450       H  0.65031240  0.38772084  0.67970410     0.13100
H1451       H  0.64287310  0.43187173  0.64604498     0.09600
H1452       H  0.61178979  0.46030945  0.60988136     0.11700
H1453       H  0.55094931  0.38466404  0.60269177     0.08400
H1454       H  0.58170594  0.35642552  0.63894062     0.11100
C1455       C  0.42586592  0.41448385  0.90387866    -0.03500
C1456       C  0.40361879  0.42850635  0.88598695    -0.06100
C1457       C  0.38831865  0.41221868  0.86363010    -0.21200
C1458       C  0.39455415  0.38155912  0.85928642     0.24500
C1459       C  0.41773050  0.36775587  0.87616323    -0.18700
C1460       C  0.43345065  0.38422586  0.89823829    -0.08700
C1461       C  0.37527370  0.36434123  0.83823193    -0.19000
C1462       C  0.36450861  0.33698988  0.84570256    -0.23800
C1463       C  0.34120243  0.32131069  0.82748899     0.26600
C1464       C  0.33830214  0.28989660  0.83028801    -0.20600
C1465       C  0.31709035  0.27432856  0.81277448    -0.10200
C1466       C  0.29858333  0.29006402  0.79229209    -0.10800
C1467       C  0.30006560  0.32158064  0.79085355    -0.03700
C1468       C  0.32118177  0.33713677  0.80829357    -0.18800
H1469       H  0.39754609  0.45189685  0.88973413     0.10300
H1470       H  0.37060912  0.42321508  0.85066799     0.10400
H1471       H  0.42331165  0.34421568  0.87262919     0.10000
H1472       H  0.45071133  0.37302610  0.91160750     0.11100
H1473       H  0.36753249  0.37583223  0.81778744     0.11200
H1474       H  0.37252820  0.32592670  0.86634534     0.13100
H1475       H  0.35297471  0.27732864  0.84547356     0.09600
H1476       H  0.31591310  0.24997115  0.81435654     0.11700
H1477       H  0.28523501  0.33406498  0.77574673     0.08400
H1478       H  0.32148493  0.36147509  0.80672865     0.11100
C1479       C  0.41100306  0.42715840  0.59544904    -0.03500
C1480       C  0.38325138  0.43940822  0.60461109    -0.06100
C1481       C  0.36508934  0.42401664  0.62552605    -0.21200
C1482       C  0.37430276  0.39615214  0.63767046     0.24500
C1483       C  0.40245880  0.38426086  0.62885298    -0.18700
C1484       C  0.42064513  0.39974311  0.60815198    -0.08700
C1485       C  0.35297023  0.37923951  0.65742086    -0.19000
C1486       C  0.36090188  0.35504789  0.67423489    -0.23800
C1487       C  0.33910813  0.33607050  0.69124335     0.26600
C1488       C  0.35030273  0.31614176  0.71345824    -0.20600
C1489       C  0.33089007  0.29693768  0.72919333    -0.10200
C1490       C  0.29982546  0.29758391  0.72325073    -0.10800
C1491       C  0.28857267  0.31687485  0.70060880    -0.03700
C1492       C  0.30800667  0.33594427  0.68463995    -0.18800
H1493       H  0.37526194  0.46052003  0.59510471     0.10300
H1494       H  0.34346437  0.43361106  0.63173931     0.10400
H1495       H  0.41027165  0.36253280  0.63675471     0.10000
H1496       H  0.44186672  0.38968463  0.60132326     0.11100
H1497       H  0.32983004  0.38714015  0.65783500     0.11200
H1498       H  0.38443240  0.34873041  0.67609644     0.13100
H1499       H  0.37419691  0.31528151  0.71852169     0.09600
H1500       H  0.34016417  0.28138300  0.74583072     0.11700
H1501       H  0.26471061  0.31725373  0.69535038     0.08400
H1502       H  0.29852937  0.34995330  0.66683555     0.11100
loop_ 
_geom_bond_atom_site_label_1 
_geom_bond_atom_site_label_2 
_geom_bond_distance 
_geom_bond_site_symmetry_2 
_ccdc_geom_bond_type 
N1            N2   1.319       .  A
N1            N7   1.315       .  A
N1         Mn781   2.193       .  S
N2            C9   1.352       .  A
N3            N5   1.314       .  A
N3            N4   1.321       .  A
N3         Mn770   2.200       .  S
N4           C10   1.354       .  A
N5            N6   1.316       .  A
N5          Mn30   2.183       .  S
N6           C10   1.350       .  A
N7            N8   1.321       .  A
N7          Mn19   2.205       .  S
N8            C9   1.355       .  A
C9          C691   1.477       .  S
C10         C667   1.470       .  S
N11          N17   1.315       .  A
N11          N12   1.317       .  A
N11        Mn792   2.189       .  S
N12          C20   1.351       .  A
N13          N14   1.319       .  A
N13          N15   1.316       .  A
N13         Mn19   2.198       .  S
N14          C21   1.353       .  A
N15          N16   1.321       .  A
N15         Mn41   2.205   1_554  S
N16          C21   1.354       .  A
N17          N18   1.320       .  A
N17        Mn770   2.196       .  S
N18          C20   1.353       .  A
Mn19        N754   2.200   1_554  S
Mn19        N768   2.200   1_554  S
Mn19        Cl43   2.543   1_554  S
C20         C704   1.469       .  S
C21         C728   1.477       .  S
N22          N23   1.319       .  A
N22          N28   1.313       .  A
N22         Mn30   2.191       .  S
N23          C31   1.352       .  A
N24          N26   1.313       .  A
N24          N25   1.317       .  A
N24        Mn793   2.184   1_554  S
N25          C32   1.351       .  A
N26          N27   1.318       .  A
N26        Mn781   2.186       .  S
N27          C32   1.352       .  A
N28          N29   1.319       .  A
N28         Mn42   2.192       .  S
N29          C31   1.353       .  A
Mn30        N752   2.194       .  S
Mn30        N777   2.188       .  S
Mn30       Cl794   2.539       .  S
C31         C608   1.472       .  S
C32         C643   1.467       .  S
N33          N34   1.320       .  A
N33          N39   1.314       .  A
N33         Mn41   2.194   1_554  S
N34          C44   1.354       .  A
N35          N36   1.317       .  A
N35          N37   1.314       .  A
N35         Mn42   2.184       .  S
N36          C45   1.351       .  A
N37          N38   1.321       .  A
N37        Mn792   2.201       .  S
N38          C45   1.354       .  A
N39          N40   1.316       .  A
N39        Mn793   2.185   1_554  S
N40          C44   1.350       .  A
Mn41        N762   2.186       .  S
Mn41        N788   2.206       .  S
Mn41        Cl43   2.543       .  S
Mn42        N775   2.185       .  S
Mn42        N790   2.184       .  S
Mn42       Cl794   2.536       .  S
Cl43       Mn781   2.539   1_556  S
Cl43       Mn793   2.536       .  S
C44         C595   1.469       .  S
C45         C560   1.472       .  S
N46          N47   1.324       .  A
N46          N52   1.318       .  A
N46         Mn75   2.219   1_554  S
N47          C54   1.356       .  A
N48          N50   1.318       .  A
N48          N49   1.325       .  A
N48         Mn64   2.231   1_545  S
N49          C55   1.358       .  A
N50          N51   1.319       .  A
N50         Mn75   2.200   1_544  S
N51          C55   1.351       .  A
N52          N53   1.321       .  A
N52         Mn64   2.211       .  S
N53          C54   1.354       .  A
C54         C536   1.487       .  S
C55         C427   1.486       .  S
N56          N62   1.318       .  A
N56          N57   1.323       .  A
N56         Mn86   2.213   1_545  S
N57          C65   1.354       .  A
N58          N59   1.326       .  A
N58          N60   1.317       .  A
N58         Mn64   2.230       .  S
N59          C66   1.358       .  A
N60          N61   1.321       .  A
N60         Mn86   2.207       .  S
N61          C66   1.353       .  A
N62          N63   1.321       .  A
N62         Mn64   2.212   1_545  S
N63          C65   1.354       .  A
Mn64        Cl88   2.556       .  S
C65         C392   1.485       .  S
C66         C464   1.491       .  S
N67          N68   1.324       .  A
N67          N73   1.317       .  A
N67        Mn826   2.220   1_545  S
N68          C76   1.356       .  A
N69          N71   1.317       .  A
N69          N70   1.323       .  A
N69         Mn87   2.220       .  S
N70          C77   1.356       .  A
N71          N72   1.321       .  A
N71        Mn826   2.201       .  S
N72          C77   1.353       .  A
N73          N74   1.320       .  A
N73         Mn87   2.205   1_545  S
N74          C76   1.353       .  A
Mn75        N818   2.222   1_565  S
Mn75        N822   2.202       .  S
Mn75        Cl88   2.557   1_556  S
C76         C440   1.485       .  S
C77         C512   1.485       .  S
N78          N79   1.321       .  A
N78          N84   1.317       .  A
N78        Mn837   2.206       .  S
N79          C89   1.354       .  A
N80          N81   1.323       .  A
N80          N82   1.318       .  A
N80         Mn87   2.218   1_545  S
N81          C90   1.355       .  A
N82          N83   1.323       .  A
N82        Mn837   2.213   1_545  S
N83          C90   1.354       .  A
N84          N85   1.321       .  A
N84         Mn87   2.208       .  S
N85          C89   1.354       .  A
Mn86        N829   2.205   1_554  S
Mn86        N833   2.210   1_564  S
Mn86        Cl88   2.554       .  S
Mn87       Cl839   2.550       .  S
Cl88       Mn838   2.550   1_554  S
C89         C499   1.482       .  S
C90         C379   1.486       .  S
N91          N92   1.319       .  A
N91          N97   1.318       .  A
N91        Mn120   2.205   1_655  S
N92          C99   1.352       .  A
N93          N95   1.316       .  A
N93          N94   1.327       .  A
N93        Mn109   2.225       .  S
N94         C100   1.358       .  A
N95          N96   1.318       .  A
N95        Mn120   2.198       .  S
N96         C100   1.350       .  A
N97          N98   1.326       .  A
N97        Mn109   2.228   1_655  S
N98          C99   1.359       .  A
C99         C355   1.488       .  S
C100        C187   1.485       .  S
N101        N107   1.318       .  A
N101        N102   1.320       .  A
N101       Mn131   2.214       .  S
N102        C110   1.353       .  A
N103        N104   1.322       .  A
N103        N105   1.319       .  A
N103       Mn109   2.219   1_655  S
N104        C111   1.354       .  A
N105        N106   1.323       .  A
N105       Mn131   2.211   1_655  S
N106        C111   1.354       .  A
N107        N108   1.325       .  A
N107       Mn109   2.224       .  S
N108        C110   1.357       .  A
Mn109      Cl133   2.576       .  S
C110        C248   1.488       .  S
C111        C283   1.485       .  S
N112        N113   1.320       .  A
N112        N118   1.317       .  A
N112       Mn871   2.202       .  S
N113        C121   1.352       .  A
N114        N116   1.317       .  A
N114        N115   1.324       .  A
N114       Mn132   2.220   1_655  S
N115        C122   1.357       .  A
N116        N117   1.319       .  A
N116       Mn871   2.197   1_655  S
N117        C122   1.351       .  A
N118        N119   1.325       .  A
N118       Mn132   2.223       .  S
N119        C121   1.357       .  A
Mn120       N863   2.202   1_554  S
Mn120       N867   2.202   1_454  S
Mn120      Cl133   2.531       .  S
C121        C200   1.486       .  S
C122        C331   1.485       .  S
N123        N124   1.326       .  A
N123        N129   1.319       .  A
N123       Mn882   2.229   1_655  S
N124        C134   1.357       .  A
N125        N126   1.324       .  A
N125        N127   1.317       .  A
N125       Mn132   2.218       .  S
N126        C135   1.356       .  A
N127        N128   1.320       .  A
N127       Mn882   2.206       .  S
N128        C135   1.352       .  A
N129        N130   1.322       .  A
N129       Mn132   2.220   1_655  S
N130        C134   1.355       .  A
Mn131       N874   2.231   1_454  S
Mn131       N878   2.202   1_554  S
Mn131      Cl133   2.542       .  S
Mn132      Cl884   2.571       .  S
Cl133      Mn883   2.571   1_554  S
C134        C296   1.493       .  S
C135        C224   1.482       .  S
C136        H137   1.112       .  S
C136        C142   1.545       .  S
C136        C141   1.537       .  S
C136        C140   1.532       .  S
C138        H139   1.112       .  S
C138        C144   1.542       .  S
C138        C143   1.532       .  S
C138        C145   1.538       .  S
C140        C143   1.372       .  D
C140        C739   1.479       .  S
C141        C144   1.381       .  D
C141        C259   1.491       .  S
C142        C145   1.382       .  D
C142        C416   1.496       .  S
C143        C715   1.469       .  S
C144        C235   1.499       .  S
C145        C451   1.492       .  S
C146        H147   1.111       .  S
C146        C152   1.543       .  S
C146        C151   1.540       .  S
C146        C150   1.533       .  S
C148        H149   1.111       .  S
C148        C154   1.542       .  S
C148        C153   1.534       .  S
C148        C155   1.542       .  S
C150        C153   1.372       .  D
C150        C680   1.482       .  S
C151        C154   1.380       .  D
C151        C403   1.488       .  S
C152        C155   1.381       .  D
C152        C272   1.499       .  S
C153        C656   1.473       .  S
C154        C368   1.500       .  S
C155        C307   1.494       .  S
C156        H157   1.111       .  S
C156        C162   1.541       .  S
C156        C161   1.535       .  S
C156        C160   1.535       .  S
C158        H159   1.112       .  S
C158        C164   1.543       .  S
C158        C163   1.530       .  S
C158        C165   1.541       .  S
C160        C163   1.373       .  D
C160        C584   1.473       .  S
C161        C164   1.378       .  D
C161        C547   1.490       .  S
C162        C165   1.382       .  D
C162        C176   1.501       .  S
C163        C571   1.477       .  S
C164        C523   1.493       .  S
C165        C211   1.492       .  S
C166        H167   1.111       .  S
C166        C172   1.550       .  S
C166        C171   1.545       .  S
C166        C170   1.529       .  S
C168        H169   1.104       .  S
C168        C174   1.530       .  S
C168        C173   1.536       .  S
C168        C175   1.544       .  S
C170        C173   1.371       .  D
C170        C632   1.475       .  S
C171        C174   1.374       .  D
C171        C344   1.492       .  S
C172        C175   1.391       .  D
C172        C475   1.498       .  S
C173        C619   1.473       .  S
C174        C320   1.491       .  S
C175        C488   1.516       .  S
C176        C177   1.407       .  A
C176        C181   1.407       .  A
C177        C178   1.405       .  A
C177        H190   1.083       .  S
C178        C179   1.406       .  A
C178        H191   1.083       .  S
C179        C182   1.494       .  S
C179        C180   1.406       .  A
C180        C181   1.398       .  A
C180        H192   1.082       .  S
C181        H193   1.081       .  S
C182        C183   1.350       .  D
C182        H194   1.086       .  S
C183        C184   1.491       .  S
C183        H195   1.086       .  S
C184        C185   1.403       .  A
C184        C189   1.410       .  A
C185        C186   1.398       .  A
C185        H196   1.083       .  S
C186        C187   1.405       .  A
C186        H197   1.083       .  S
C187        C188   1.406       .  A
C188        C189   1.407       .  A
C188        H198   1.083       .  S
C189        H199   1.082       .  S
C200        C201   1.405       .  A
C200        C205   1.405       .  A
C201        C202   1.399       .  A
C201        H214   1.083       .  S
C202        C203   1.405       .  A
C202        H215   1.083       .  S
C203        C206   1.498       .  S
C203        C204   1.413       .  A
C204        C205   1.404       .  A
C204        H216   1.080       .  S
C205        H217   1.083       .  S
C206        C207   1.350       .  D
C206        H218   1.086       .  S
C207        C208   1.493       .  S
C207        H219   1.083       .  S
C208        C209   1.403       .  A
C208        C213   1.411       .  A
C209        C210   1.397       .  A
C209        H220   1.084       .  S
C210        C211   1.406       .  A
C210        H221   1.083       .  S
C211        C212   1.402       .  A
C212        C213   1.405       .  A
C212        H222   1.083       .  S
C213        H223   1.081       .  S
C224        C225   1.404       .  A
C224        C229   1.405       .  A
C225        C226   1.400       .  A
C225        H238   1.083       .  S
C226        C227   1.404       .  A
C226        H239   1.083       .  S
C227        C230   1.490       .  S
C227        C228   1.409       .  A
C228        C229   1.404       .  A
C228        H240   1.082       .  S
C229        H241   1.083       .  S
C230        C231   1.350       .  D
C230        H242   1.085       .  S
C231        C232   1.493       .  S
C231        H243   1.086       .  S
C232        C233   1.406       .  A
C232        C237   1.406       .  A
C233        C234   1.404       .  A
C233        H244   1.083       .  S
C234        C235   1.406       .  A
C234        H245   1.083       .  S
C235        C236   1.407       .  A
C236        C237   1.398       .  A
C236        H246   1.081       .  S
C237        H247   1.082       .  S
C248        C249   1.405       .  A
C248        C253   1.406       .  A
C249        C250   1.399       .  A
C249        H262   1.083       .  S
C250        C251   1.404       .  A
C250        H263   1.083       .  S
C251        C254   1.497       .  S
C251        C252   1.412       .  A
C252        C253   1.405       .  A
C252        H264   1.080       .  S
C253        H265   1.083       .  S
C254        C255   1.350       .  D
C254        H266   1.085       .  S
C255        C256   1.494       .  S
C255        H267   1.083       .  S
C256        C257   1.404       .  A
C256        C261   1.411       .  A
C257        C258   1.398       .  A
C257        H268   1.083       .  S
C258        C259   1.405       .  A
C258        H269   1.083       .  S
C259        C260   1.402       .  A
C260        C261   1.404       .  A
C260        H270   1.083       .  S
C261        H271   1.081       .  S
C272        C273   1.408       .  A
C272        C277   1.408       .  A
C273        C274   1.394       .  A
C273        H286   1.081       .  S
C274        C275   1.399       .  A
C274        H287   1.084       .  S
C275        C278   1.486       .  S
C275        C276   1.409       .  A
C276        C277   1.407       .  A
C276        H288   1.082       .  S
C277        H289   1.083       .  S
C278        C279   1.345       .  D
C278        H290   1.087       .  S
C279        C280   1.489       .  S
C279        H291   1.087       .  S
C280        C281   1.402       .  A
C280        C285   1.408       .  A
C281        C282   1.400       .  A
C281        H292   1.083       .  S
C282        C283   1.406       .  A
C282        H293   1.083       .  S
C283        C284   1.406       .  A
C284        C285   1.403       .  A
C284        H294   1.083       .  S
C285        H295   1.082       .  S
C296        C297   1.405       .  A
C296        C301   1.408       .  A
C297        C298   1.402       .  A
C297        H310   1.083       .  S
C298        C299   1.406       .  A
C298        H311   1.083       .  S
C299        C302   1.501       .  S
C299        C300   1.411       .  A
C300        C301   1.408       .  A
C300        H312   1.081       .  S
C301        H313   1.083       .  S
C302        C303   1.354       .  D
C302        H314   1.083       .  S
C303        C304   1.504       .  S
C303        H315   1.085       .  S
C304        C305   1.408       .  A
C304        C309   1.412       .  A
C305        C306   1.403       .  A
C305        H316   1.083       .  S
C306        C307   1.402       .  A
C306        H317   1.083       .  S
C307        C308   1.406       .  A
C308        C309   1.405       .  A
C308        H318   1.083       .  S
C309        H319   1.080       .  S
C320        C321   1.404       .  A
C320        C325   1.403       .  A
C321        C322   1.394       .  A
C321        H334   1.080       .  S
C322        C323   1.401       .  A
C322        H335   1.084       .  S
C323        C326   1.487       .  S
C323        C324   1.410       .  A
C324        C325   1.406       .  A
C324        H336   1.082       .  S
C325        H337   1.083       .  S
C326        C327   1.346       .  D
C326        H338   1.086       .  S
C327        C328   1.491       .  S
C327        H339   1.087       .  S
C328        C329   1.403       .  A
C328        C333   1.409       .  A
C329        C330   1.400       .  A
C329        H340   1.084       .  S
C330        C331   1.407       .  A
C330        H341   1.083       .  S
C331        C332   1.404       .  A
C332        C333   1.402       .  A
C332        H342   1.083       .  S
C333        H343   1.082       .  S
C344        C345   1.405       .  A
C344        C349   1.401       .  A
C345        C346   1.396       .  A
C345        H358   1.083       .  S
C346        C347   1.403       .  A
C346        H359   1.084       .  S
C347        C350   1.496       .  S
C347        C348   1.414       .  A
C348        C349   1.407       .  A
C348        H360   1.081       .  S
C349        H361   1.083       .  S
C350        C351   1.349       .  D
C350        H362   1.085       .  S
C351        C352   1.496       .  S
C351        H363   1.085       .  S
C352        C353   1.403       .  A
C352        C357   1.412       .  A
C353        C354   1.399       .  A
C353        H364   1.084       .  S
C354        C355   1.406       .  A
C354        H365   1.083       .  S
C355        C356   1.406       .  A
C356        C357   1.406       .  A
C356        H366   1.083       .  S
C357        H367   1.081       .  S
C368        C369   1.407       .  A
C368        C373   1.407       .  A
C369        C370   1.396       .  A
C369        H382   1.079       .  S
C370        C371   1.403       .  A
C370        H383   1.083       .  S
C371        C374   1.493       .  S
C371        C372   1.408       .  A
C372        C373   1.408       .  A
C372        H384   1.083       .  S
C373        H385   1.083       .  S
C374        C375   1.352       .  D
C374        H386   1.086       .  S
C375        C376   1.491       .  S
C375        H387   1.086       .  S
C376        C377   1.406       .  A
C376        C381   1.407       .  A
C377        C378   1.402       .  A
C377        H388   1.083       .  S
C378        C379   1.404       .  A
C378        H389   1.083       .  S
C379        C380   1.407       .  A
C380        C381   1.404       .  A
C380        H390   1.083       .  S
C381        H391   1.082       .  S
C392        C393   1.404       .  A
C392        C397   1.407       .  A
C393        C394   1.398       .  A
C393        H406   1.083       .  S
C394        C395   1.404       .  A
C394        H407   1.083       .  S
C395        C398   1.491       .  S
C395        C396   1.408       .  A
C396        C397   1.404       .  A
C396        H408   1.082       .  S
C397        H409   1.083       .  S
C398        C399   1.351       .  D
C398        H410   1.082       .  S
C399        C400   1.497       .  S
C399        H411   1.085       .  S
C400        C401   1.407       .  A
C400        C405   1.411       .  A
C401        C402   1.402       .  A
C401        H412   1.083       .  S
C402        C403   1.402       .  A
C402        H413   1.083       .  S
C403        C404   1.403       .  A
C404        C405   1.399       .  A
C404        H414   1.083       .  S
C405        H415   1.079       .  S
C416        C417   1.406       .  A
C416        C421   1.407       .  A
C417        C418   1.393       .  A
C417        H430   1.079       .  S
C418        C419   1.399       .  A
C418        H431   1.084       .  S
C419        C422   1.487       .  S
C419        C420   1.410       .  A
C420        C421   1.408       .  A
C420        H432   1.082       .  S
C421        H433   1.083       .  S
C422        C423   1.344       .  D
C422        H434   1.087       .  S
C423        C424   1.490       .  S
C423        H435   1.087       .  S
C424        C425   1.402       .  A
C424        C429   1.409       .  A
C425        C426   1.399       .  A
C425        H436   1.083       .  S
C426        C427   1.407       .  A
C426        H437   1.083       .  S
C427        C428   1.405       .  A
C428        C429   1.404       .  A
C428        H438   1.083       .  S
C429        H439   1.082       .  S
C440        C441   1.405       .  A
C440        C445   1.406       .  A
C441        C442   1.399       .  A
C441        H454   1.083       .  S
C442        C443   1.405       .  A
C442        H455   1.084       .  S
C443        C446   1.494       .  S
C443        C444   1.410       .  A
C444        C445   1.404       .  A
C444        H456   1.081       .  S
C445        H457   1.083       .  S
C446        C447   1.352       .  D
C446        H458   1.084       .  S
C447        C448   1.496       .  S
C447        H459   1.085       .  S
C448        C449   1.406       .  A
C448        C453   1.410       .  A
C449        C450   1.402       .  A
C449        H460   1.083       .  S
C450        C451   1.403       .  A
C450        H461   1.083       .  S
C451        C452   1.406       .  A
C452        C453   1.400       .  A
C452        H462   1.082       .  S
C453        H463   1.080       .  S
C464        C465   1.406       .  A
C464        C469   1.406       .  A
C465        C466   1.401       .  A
C465        H478   1.083       .  S
C466        C467   1.406       .  A
C466        H479   1.083       .  S
C467        C470   1.503       .  S
C467        C468   1.413       .  A
C468        C469   1.406       .  A
C468        H480   1.079       .  S
C469        H481   1.083       .  S
C470        C471   1.353       .  D
C470        H482   1.085       .  S
C471        C472   1.498       .  S
C471        H483   1.082       .  S
C472        C473   1.405       .  A
C472        C477   1.411       .  A
C473        C474   1.400       .  A
C473        H484   1.083       .  S
C474        C475   1.407       .  A
C474        H485   1.083       .  S
C475        C476   1.405       .  A
C476        C477   1.406       .  A
C476        H486   1.083       .  S
C477        H487   1.082       .  S
C488        C489   1.414       .  A
C488        C493   1.413       .  A
C489        C490   1.392       .  A
C489        H502   1.074       .  S
C490        C491   1.394       .  A
C490        H503   1.084       .  S
C491        C494   1.482       .  S
C491        C492   1.405       .  A
C492        C493   1.406       .  A
C492        H504   1.083       .  S
C493        H505   1.081       .  S
C494        C495   1.345       .  D
C494        H506   1.086       .  S
C495        C496   1.489       .  S
C495        H507   1.087       .  S
C496        C497   1.403       .  A
C496        C501   1.408       .  A
C497        C498   1.399       .  A
C497        H508   1.083       .  S
C498        C499   1.405       .  A
C498        H509   1.083       .  S
C499        C500   1.406       .  A
C500        C501   1.401       .  A
C500        H510   1.083       .  S
C501        H511   1.082       .  S
C512        C513   1.405       .  A
C512        C517   1.407       .  A
C513        C514   1.401       .  A
C513        H526   1.083       .  S
C514        C515   1.404       .  A
C514        H527   1.083       .  S
C515        C518   1.487       .  S
C515        C516   1.406       .  A
C516        C517   1.402       .  A
C516        H528   1.083       .  S
C517        H529   1.083       .  S
C518        C519   1.349       .  D
C518        H530   1.087       .  S
C519        C520   1.489       .  S
C519        H531   1.086       .  S
C520        C521   1.407       .  A
C520        C525   1.404       .  A
C521        C522   1.405       .  A
C521        H532   1.083       .  S
C522        C523   1.405       .  A
C522        H533   1.083       .  S
C523        C524   1.406       .  A
C524        C525   1.397       .  A
C524        H534   1.082       .  S
C525        H535   1.083       .  S
C536        C537   1.404       .  A
C536        C541   1.407       .  A
C537        C538   1.399       .  A
C537        H550   1.083       .  S
C538        C539   1.405       .  A
C538        H551   1.083       .  S
C539        C542   1.496       .  S
C539        C540   1.410       .  A
C540        C541   1.405       .  A
C540        H552   1.081       .  S
C541        H553   1.083       .  S
C542        C543   1.353       .  D
C542        H554   1.083       .  S
C543        C544   1.500       .  S
C543        H555   1.085       .  S
C544        C545   1.408       .  A
C544        C549   1.411       .  A
C545        C546   1.403       .  A
C545        H556   1.083       .  S
C546        C547   1.402       .  A
C546        H557   1.083       .  S
C547        C548   1.405       .  A
C548        C549   1.401       .  A
C548        H558   1.083       .  S
C549        H559   1.080       .  S
C560        C561   1.404       .  A
C560        C565   1.403       .  A
C561        C562   1.394       .  A
C561        H574   1.083       .  S
C562        C563   1.401       .  A
C562        H575   1.084       .  S
C563        C566   1.480       .  S
C563        C564   1.408       .  A
C564        C565   1.397       .  A
C564        H576   1.082       .  S
C565        H577   1.083       .  S
C566        C567   1.346       .  D
C566        H578   1.082       .  S
C567        C568   1.486       .  S
C567        H579   1.085       .  S
C568        C569   1.405       .  A
C568        C573   1.410       .  A
C569        C570   1.395       .  A
C569        H580   1.083       .  S
C570        C571   1.399       .  A
C570        H581   1.082       .  S
C571        C572   1.401       .  A
C572        C573   1.394       .  A
C572        H582   1.083       .  S
C573        H583   1.079       .  S
C584        C585   1.402       .  A
C584        C589   1.399       .  A
C585        C586   1.392       .  A
C585        H598   1.083       .  S
C586        C587   1.402       .  A
C586        H599   1.083       .  S
C587        C590   1.479       .  S
C587        C588   1.410       .  A
C588        C589   1.395       .  A
C588        H600   1.081       .  S
C589        H601   1.084       .  S
C590        C591   1.343       .  D
C590        H602   1.084       .  S
C591        C592   1.480       .  S
C591        H603   1.085       .  S
C592        C593   1.401       .  A
C592        C597   1.409       .  A
C593        C594   1.393       .  A
C593        H604   1.083       .  S
C594        C595   1.403       .  A
C594        H605   1.083       .  S
C595        C596   1.401       .  A
C596        C597   1.395       .  A
C596        H606   1.083       .  S
C597        H607   1.080       .  S
C608        C609   1.404       .  A
C608        C613   1.402       .  A
C609        C610   1.396       .  A
C609        H622   1.083       .  S
C610        C611   1.402       .  A
C610        H623   1.084       .  S
C611        C614   1.480       .  S
C611        C612   1.407       .  A
C612        C613   1.395       .  A
C612        H624   1.082       .  S
C613        H625   1.083       .  S
C614        C615   1.345       .  D
C614        H626   1.085       .  S
C615        C616   1.479       .  S
C615        H627   1.086       .  S
C616        C617   1.402       .  A
C616        C621   1.409       .  A
C617        C618   1.392       .  A
C617        H628   1.084       .  S
C618        C619   1.398       .  A
C618        H629   1.080       .  S
C619        C620   1.401       .  A
C620        C621   1.397       .  A
C620        H630   1.083       .  S
C621        H631   1.081       .  S
C632        C633   1.399       .  A
C632        C637   1.401       .  A
C633        C634   1.393       .  A
C633        H646   1.081       .  S
C634        C635   1.403       .  A
C634        H647   1.084       .  S
C635        C638   1.480       .  S
C635        C636   1.409       .  A
C636        C637   1.393       .  A
C636        H648   1.079       .  S
C637        H649   1.083       .  S
C638        C639   1.344       .  D
C638        H650   1.087       .  S
C639        C640   1.474       .  S
C639        H651   1.083       .  S
C640        C641   1.400       .  A
C640        C645   1.406       .  A
C641        C642   1.394       .  A
C641        H652   1.083       .  S
C642        C643   1.404       .  A
C642        H653   1.083       .  S
C643        C644   1.402       .  A
C644        C645   1.393       .  A
C644        H654   1.083       .  S
C645        H655   1.082       .  S
C656        C657   1.403       .  A
C656        C661   1.399       .  A
C657        C658   1.393       .  A
C657        H670   1.083       .  S
C658        C659   1.401       .  A
C658        H671   1.083       .  S
C659        C662   1.479       .  S
C659        C660   1.409       .  A
C660        C661   1.395       .  A
C660        H672   1.081       .  S
C661        H673   1.084       .  S
C662        C663   1.344       .  D
C662        H674   1.084       .  S
C663        C664   1.481       .  S
C663        H675   1.086       .  S
C664        C665   1.402       .  A
C664        C669   1.410       .  A
C665        C666   1.392       .  A
C665        H676   1.084       .  S
C666        C667   1.403       .  A
C666        H677   1.083       .  S
C667        C668   1.402       .  A
C668        C669   1.397       .  A
C668        H678   1.083       .  S
C669        H679   1.080       .  S
C680        C681   1.403       .  A
C680        C685   1.400       .  A
C681        C682   1.397       .  A
C681        H694   1.083       .  S
C682        C683   1.409       .  A
C682        H695   1.080       .  S
C683        C686   1.490       .  S
C683        C684   1.407       .  A
C684        C685   1.398       .  A
C684        H696   1.083       .  S
C685        H697   1.083       .  S
C686        C687   1.349       .  D
C686        H698   1.085       .  S
C687        C688   1.486       .  S
C687        H699   1.083       .  S
C688        C689   1.404       .  A
C688        C693   1.408       .  A
C689        C690   1.397       .  A
C689        H700   1.084       .  S
C690        C691   1.404       .  A
C690        H701   1.083       .  S
C691        C692   1.403       .  A
C692        C693   1.398       .  A
C692        H702   1.083       .  S
C693        H703   1.081       .  S
C704        C705   1.403       .  A
C704        C709   1.404       .  A
C705        C706   1.392       .  A
C705        H718   1.083       .  S
C706        C707   1.399       .  A
C706        H719   1.084       .  S
C707        C710   1.470       .  S
C707        C708   1.405       .  A
C708        C709   1.397       .  A
C708        H720   1.083       .  S
C709        H721   1.083       .  S
C710        C711   1.344       .  D
C710        H722   1.084       .  S
C711        C712   1.479       .  S
C711        H723   1.087       .  S
C712        C713   1.404       .  A
C712        C717   1.408       .  A
C713        C714   1.396       .  A
C713        H724   1.083       .  S
C714        C715   1.400       .  A
C714        H725   1.083       .  S
C715        C716   1.398       .  A
C716        C717   1.390       .  A
C716        H726   1.084       .  S
C717        H727   1.081       .  S
C728        C729   1.404       .  A
C728        C733   1.403       .  A
C729        C730   1.399       .  A
C729        H742   1.083       .  S
C730        C731   1.405       .  A
C730        H743   1.083       .  S
C731        C734   1.489       .  S
C731        C732   1.409       .  A
C732        C733   1.395       .  A
C732        H744   1.079       .  S
C733        H745   1.083       .  S
C734        C735   1.348       .  D
C734        H746   1.084       .  S
C735        C736   1.486       .  S
C735        H747   1.083       .  S
C736        C737   1.404       .  A
C736        C741   1.410       .  A
C737        C738   1.395       .  A
C737        H748   1.083       .  S
C738        C739   1.402       .  A
C738        H749   1.083       .  S
C739        C740   1.400       .  A
C740        C741   1.397       .  A
C740        H750   1.083       .  S
C741        H751   1.080       .  S
N752        N753   1.319       .  A
N752        N758   1.315       .  A
N753        C760   1.352       .  A
N754        N756   1.314       .  A
N754        N755   1.320       .  A
N755        C761   1.354       .  A
N756        N757   1.316       .  A
N756       Mn781   2.182   1_556  S
N757        C761   1.350       .  A
N758        N759   1.320       .  A
N758       Mn770   2.201       .  S
N759        C760   1.354       .  A
C760       C1442   1.475       .  S
C761       C1418   1.470       .  S
N762        N768   1.315       .  A
N762        N763   1.316       .  A
N763        C771   1.350       .  A
N764        N765   1.318       .  A
N764        N766   1.316       .  A
N764       Mn770   2.197       .  S
N765        C772   1.352       .  A
N766        N767   1.320       .  A
N766       Mn792   2.199       .  S
N767        C772   1.353       .  A
N768        N769   1.320       .  A
N769        C771   1.354       .  A
Mn770      Cl794   2.543       .  S
C771       C1455   1.469       .  S
C772       C1479   1.473       .  S
N773        N774   1.319       .  A
N773        N779   1.313       .  A
N773       Mn781   2.191   1_556  S
N774        C782   1.352       .  A
N775        N777   1.313       .  A
N775        N776   1.317       .  A
N776        C783   1.351       .  A
N777        N778   1.318       .  A
N778        C783   1.353       .  A
N779        N780   1.319       .  A
N779       Mn793   2.192       .  S
N780        C782   1.353       .  A
C782       C1359   1.471       .  S
C783       C1394   1.468       .  S
N784        N785   1.320       .  A
N784        N790   1.314       .  A
N784       Mn792   2.196       .  S
N785        C795   1.354       .  A
N786        N787   1.317       .  A
N786        N788   1.314       .  A
N786       Mn793   2.182       .  S
N787        C796   1.350       .  A
N788        N789   1.321       .  A
N789        C796   1.355       .  A
N790        N791   1.317       .  A
N791        C795   1.350       .  A
Mn792      Cl794   2.542       .  S
C795       C1346   1.470       .  S
C796       C1311   1.472       .  S
N797        N798   1.324       .  A
N797        N803   1.318       .  A
N797       Mn826   2.219       .  S
N798        C805   1.356       .  A
N799        N801   1.318       .  A
N799        N800   1.325       .  A
N799       Mn815   2.230   1_545  S
N800        C806   1.358       .  A
N801        N802   1.319       .  A
N801       Mn826   2.199   1_545  S
N802        C806   1.351       .  A
N803        N804   1.321       .  A
N803       Mn815   2.209       .  S
N804        C805   1.353       .  A
C805       C1287   1.486       .  S
C806       C1178   1.486       .  S
N807        N813   1.318       .  A
N807        N808   1.323       .  A
N807       Mn837   2.214   1_545  S
N808        C816   1.355       .  A
N809        N810   1.326       .  A
N809        N811   1.317       .  A
N809       Mn815   2.227       .  S
N810        C817   1.358       .  A
N811        N812   1.321       .  A
N811       Mn837   2.208       .  S
N812        C817   1.353       .  A
N813        N814   1.321       .  A
N813       Mn815   2.210   1_545  S
N814        C816   1.354       .  A
Mn815      Cl839   2.556       .  S
C816       C1143   1.485       .  S
C817       C1215   1.490       .  S
N818        N819   1.325       .  A
N818        N824   1.317       .  A
N819        C827   1.357       .  A
N820        N822   1.317       .  A
N820        N821   1.323       .  A
N820       Mn838   2.220       .  S
N821        C828   1.356       .  A
N822        N823   1.321       .  A
N823        C828   1.353       .  A
N824        N825   1.320       .  A
N824       Mn838   2.203   1_545  S
N825        C827   1.352       .  A
Mn826      Cl839   2.556       .  S
C827       C1191   1.486       .  S
C828       C1263   1.484       .  S
N829        N830   1.321       .  A
N829        N835   1.317       .  A
N830        C840   1.353       .  A
N831        N832   1.323       .  A
N831        N833   1.318       .  A
N831       Mn838   2.217   1_545  S
N832        C841   1.355       .  A
N833        N834   1.322       .  A
N834        C841   1.354       .  A
N835        N836   1.321       .  A
N835       Mn838   2.208       .  S
N836        C840   1.354       .  A
Mn837      Cl839   2.554       .  S
C840       C1250   1.482       .  S
C841       C1130   1.484       .  S
N842        N843   1.319       .  A
N842        N848   1.317       .  A
N842       Mn871   2.205   1_655  S
N843        C850   1.352       .  A
N844        N846   1.316       .  A
N844        N845   1.327       .  A
N844       Mn860   2.226       .  S
N845        C851   1.358       .  A
N846        N847   1.318       .  A
N846       Mn871   2.195       .  S
N847        C851   1.350       .  A
N848        N849   1.325       .  A
N848       Mn860   2.223   1_655  S
N849        C850   1.358       .  A
C850       C1106   1.486       .  S
C851        C938   1.484       .  S
N852        N858   1.318       .  A
N852        N853   1.320       .  A
N852       Mn882   2.213       .  S
N853        C861   1.353       .  A
N854        N855   1.322       .  A
N854        N856   1.319       .  A
N854       Mn860   2.219   1_655  S
N855        C862   1.354       .  A
N856        N857   1.323       .  A
N856       Mn882   2.214   1_655  S
N857        C862   1.354       .  A
N858        N859   1.324       .  A
N858       Mn860   2.221       .  S
N859        C861   1.357       .  A
Mn860      Cl884   2.575       .  S
C861        C999   1.486       .  S
C862       C1034   1.487       .  S
N863        N864   1.320       .  A
N863        N869   1.317       .  A
N864        C872   1.352       .  A
N865        N867   1.317       .  A
N865        N866   1.324       .  A
N865       Mn883   2.218   1_655  S
N866        C873   1.357       .  A
N867        N868   1.320       .  A
N868        C873   1.352       .  A
N869        N870   1.325       .  A
N869       Mn883   2.222       .  S
N870        C872   1.357       .  A
Mn871      Cl884   2.532       .  S
C872        C951   1.486       .  S
C873       C1082   1.486       .  S
N874        N875   1.326       .  A
N874        N880   1.319       .  A
N875        C885   1.358       .  A
N876        N877   1.324       .  A
N876        N878   1.317       .  A
N876       Mn883   2.217       .  S
N877        C886   1.356       .  A
N878        N879   1.320       .  A
N879        C886   1.351       .  A
N880        N881   1.322       .  A
N880       Mn883   2.216   1_655  S
N881        C885   1.354       .  A
Mn882      Cl884   2.542       .  S
C885       C1047   1.493       .  S
C886        C975   1.480       .  S
C887        H888   1.112       .  S
C887        C893   1.544       .  S
C887        C892   1.538       .  S
C887        C891   1.532       .  S
C889        H890   1.112       .  S
C889        C895   1.540       .  S
C889        C894   1.532       .  S
C889        C896   1.538       .  S
C891        C894   1.372       .  D
C891       C1490   1.477       .  S
C892        C895   1.381       .  D
C892       C1010   1.492       .  S
C893        C896   1.381       .  D
C893       C1167   1.497       .  S
C894       C1466   1.471       .  S
C895        C986   1.497       .  S
C896       C1202   1.490       .  S
C897        H898   1.111       .  S
C897        C903   1.543       .  S
C897        C902   1.539       .  S
C897        C901   1.533       .  S
C899        H900   1.111       .  S
C899        C905   1.542       .  S
C899        C904   1.534       .  S
C899        C906   1.542       .  S
C901        C904   1.372       .  D
C901       C1431   1.479       .  S
C902        C905   1.379       .  D
C902       C1154   1.486       .  S
C903        C906   1.381       .  D
C903       C1023   1.500       .  S
C904       C1407   1.474       .  S
C905       C1119   1.500       .  S
C906       C1058   1.493       .  S
C907        H908   1.111       .  S
C907        C913   1.541       .  S
C907        C912   1.535       .  S
C907        C911   1.535       .  S
C909        H910   1.112       .  S
C909        C915   1.543       .  S
C909        C914   1.530       .  S
C909        C916   1.540       .  S
C911        C914   1.374       .  D
C911       C1335   1.474       .  S
C912        C915   1.377       .  D
C912       C1298   1.490       .  S
C913        C916   1.382       .  D
C913        C927   1.498       .  S
C914       C1322   1.476       .  S
C915       C1274   1.492       .  S
C916        C962   1.492       .  S
C917        H918   1.112       .  S
C917        C923   1.551       .  S
C917        C922   1.547       .  S
C917        C921   1.529       .  S
C919        H920   1.104       .  S
C919        C925   1.530       .  S
C919        C924   1.536       .  S
C919        C926   1.543       .  S
C921        C924   1.370       .  D
C921       C1383   1.474       .  S
C922        C925   1.374       .  D
C922       C1095   1.490       .  S
C923        C926   1.391       .  D
C923       C1226   1.499       .  S
C924       C1370   1.471       .  S
C925       C1071   1.493       .  S
C926       C1239   1.515       .  S
C927        C928   1.406       .  A
C927        C932   1.407       .  A
C928        C929   1.404       .  A
C928        H941   1.083       .  S
C929        C930   1.407       .  A
C929        H942   1.083       .  S
C930        C933   1.493       .  S
C930        C931   1.406       .  A
C931        C932   1.396       .  A
C931        H943   1.082       .  S
C932        H944   1.081       .  S
C933        C934   1.349       .  D
C933        H945   1.086       .  S
C934        C935   1.489       .  S
C934        H946   1.086       .  S
C935        C936   1.402       .  A
C935        C940   1.409       .  A
C936        C937   1.397       .  A
C936        H947   1.083       .  S
C937        C938   1.405       .  A
C937        H948   1.083       .  S
C938        C939   1.406       .  A
C939        C940   1.406       .  A
C939        H949   1.083       .  S
C940        H950   1.082       .  S
C951        C952   1.405       .  A
C951        C956   1.405       .  A
C952        C953   1.399       .  A
C952        H965   1.083       .  S
C953        C954   1.405       .  A
C953        H966   1.083       .  S
C954        C957   1.499       .  S
C954        C955   1.413       .  A
C955        C956   1.405       .  A
C955        H967   1.080       .  S
C956        H968   1.083       .  S
C957        C958   1.351       .  D
C957        H969   1.084       .  S
C958        C959   1.497       .  S
C958        H970   1.084       .  S
C959        C960   1.404       .  A
C959        C964   1.413       .  A
C960        C961   1.397       .  A
C960        H971   1.083       .  S
C961        C962   1.405       .  A
C961        H972   1.083       .  S
C962        C963   1.402       .  A
C963        C964   1.405       .  A
C963        H973   1.083       .  S
C964        H974   1.080       .  S
C975        C976   1.403       .  A
C975        C980   1.405       .  A
C976        C977   1.398       .  A
C976        H989   1.083       .  S
C977        C978   1.404       .  A
C977        H990   1.083       .  S
C978        C981   1.489       .  S
C978        C979   1.409       .  A
C979        C980   1.403       .  A
C979        H991   1.082       .  S
C980        H992   1.083       .  S
C981        C982   1.349       .  D
C981        H993   1.085       .  S
C982        C983   1.492       .  S
C982        H994   1.086       .  S
C983        C984   1.406       .  A
C983        C988   1.406       .  A
C984        C985   1.403       .  A
C984        H995   1.083       .  S
C985        C986   1.405       .  A
C985        H996   1.083       .  S
C986        C987   1.407       .  A
C987        C988   1.397       .  A
C987        H997   1.081       .  S
C988        H998   1.082       .  S
C999       C1000   1.405       .  A
C999       C1004   1.405       .  A
C1000      C1001   1.399       .  A
C1000      H1013   1.083       .  S
C1001      C1002   1.405       .  A
C1001      H1014   1.083       .  S
C1002      C1005   1.498       .  S
C1002      C1003   1.412       .  A
C1003      C1004   1.404       .  A
C1003      H1015   1.080       .  S
C1004      H1016   1.083       .  S
C1005      C1006   1.350       .  D
C1005      H1017   1.085       .  S
C1006      C1007   1.493       .  S
C1006      H1018   1.083       .  S
C1007      C1008   1.403       .  A
C1007      C1012   1.411       .  A
C1008      C1009   1.398       .  A
C1008      H1019   1.083       .  S
C1009      C1010   1.406       .  A
C1009      H1020   1.083       .  S
C1010      C1011   1.403       .  A
C1011      C1012   1.404       .  A
C1011      H1021   1.083       .  S
C1012      H1022   1.081       .  S
C1023      C1024   1.409       .  A
C1023      C1028   1.408       .  A
C1024      C1025   1.394       .  A
C1024      H1037   1.081       .  S
C1025      C1026   1.399       .  A
C1025      H1038   1.084       .  S
C1026      C1029   1.487       .  S
C1026      C1027   1.409       .  A
C1027      C1028   1.407       .  A
C1027      H1039   1.082       .  S
C1028      H1040   1.082       .  S
C1029      C1030   1.345       .  D
C1029      H1041   1.087       .  S
C1030      C1031   1.490       .  S
C1030      H1042   1.087       .  S
C1031      C1032   1.403       .  A
C1031      C1036   1.408       .  A
C1032      C1033   1.400       .  A
C1032      H1043   1.083       .  S
C1033      C1034   1.406       .  A
C1033      H1044   1.083       .  S
C1034      C1035   1.407       .  A
C1035      C1036   1.404       .  A
C1035      H1045   1.083       .  S
C1036      H1046   1.082       .  S
C1047      C1048   1.406       .  A
C1047      C1052   1.407       .  A
C1048      C1049   1.401       .  A
C1048      H1061   1.083       .  S
C1049      C1050   1.405       .  A
C1049      H1062   1.083       .  S
C1050      C1053   1.501       .  S
C1050      C1051   1.411       .  A
C1051      C1052   1.408       .  A
C1051      H1063   1.081       .  S
C1052      H1064   1.083       .  S
C1053      C1054   1.354       .  D
C1053      H1065   1.083       .  S
C1054      C1055   1.504       .  S
C1054      H1066   1.085       .  S
C1055      C1056   1.408       .  A
C1055      C1060   1.413       .  A
C1056      C1057   1.403       .  A
C1056      H1067   1.083       .  S
C1057      C1058   1.402       .  A
C1057      H1068   1.083       .  S
C1058      C1059   1.405       .  A
C1059      C1060   1.405       .  A
C1059      H1069   1.083       .  S
C1060      H1070   1.079       .  S
C1071      C1072   1.404       .  A
C1071      C1076   1.404       .  A
C1072      C1073   1.394       .  A
C1072      H1085   1.080       .  S
C1073      C1074   1.401       .  A
C1073      H1086   1.084       .  S
C1074      C1077   1.488       .  S
C1074      C1075   1.410       .  A
C1075      C1076   1.407       .  A
C1075      H1087   1.082       .  S
C1076      H1088   1.083       .  S
C1077      C1078   1.346       .  D
C1077      H1089   1.086       .  S
C1078      C1079   1.492       .  S
C1078      H1090   1.087       .  S
C1079      C1080   1.403       .  A
C1079      C1084   1.409       .  A
C1080      C1081   1.400       .  A
C1080      H1091   1.084       .  S
C1081      C1082   1.407       .  A
C1081      H1092   1.083       .  S
C1082      C1083   1.405       .  A
C1083      C1084   1.403       .  A
C1083      H1093   1.083       .  S
C1084      H1094   1.082       .  S
C1095      C1096   1.405       .  A
C1095      C1100   1.401       .  A
C1096      C1097   1.395       .  A
C1096      H1109   1.083       .  S
C1097      C1098   1.403       .  A
C1097      H1110   1.084       .  S
C1098      C1101   1.494       .  S
C1098      C1099   1.414       .  A
C1099      C1100   1.407       .  A
C1099      H1111   1.081       .  S
C1100      H1112   1.083       .  S
C1101      C1102   1.348       .  D
C1101      H1113   1.085       .  S
C1102      C1103   1.495       .  S
C1102      H1114   1.085       .  S
C1103      C1104   1.403       .  A
C1103      C1108   1.412       .  A
C1104      C1105   1.398       .  A
C1104      H1115   1.084       .  S
C1105      C1106   1.406       .  A
C1105      H1116   1.083       .  S
C1106      C1107   1.405       .  A
C1107      C1108   1.404       .  A
C1107      H1117   1.083       .  S
C1108      H1118   1.081       .  S
C1119      C1120   1.407       .  A
C1119      C1124   1.407       .  A
C1120      C1121   1.395       .  A
C1120      H1133   1.079       .  S
C1121      C1122   1.403       .  A
C1121      H1134   1.083       .  S
C1122      C1125   1.491       .  S
C1122      C1123   1.408       .  A
C1123      C1124   1.407       .  A
C1123      H1135   1.083       .  S
C1124      H1136   1.083       .  S
C1125      C1126   1.351       .  D
C1125      H1137   1.086       .  S
C1126      C1127   1.489       .  S
C1126      H1138   1.086       .  S
C1127      C1128   1.405       .  A
C1127      C1132   1.406       .  A
C1128      C1129   1.401       .  A
C1128      H1139   1.083       .  S
C1129      C1130   1.404       .  A
C1129      H1140   1.083       .  S
C1130      C1131   1.407       .  A
C1131      C1132   1.402       .  A
C1131      H1141   1.083       .  S
C1132      H1142   1.082       .  S
C1143      C1144   1.404       .  A
C1143      C1148   1.407       .  A
C1144      C1145   1.398       .  A
C1144      H1157   1.083       .  S
C1145      C1146   1.404       .  A
C1145      H1158   1.083       .  S
C1146      C1149   1.490       .  S
C1146      C1147   1.408       .  A
C1147      C1148   1.404       .  A
C1147      H1159   1.082       .  S
C1148      H1160   1.083       .  S
C1149      C1150   1.351       .  D
C1149      H1161   1.082       .  S
C1150      C1151   1.497       .  S
C1150      H1162   1.085       .  S
C1151      C1152   1.407       .  A
C1151      C1156   1.411       .  A
C1152      C1153   1.402       .  A
C1152      H1163   1.083       .  S
C1153      C1154   1.401       .  A
C1153      H1164   1.083       .  S
C1154      C1155   1.403       .  A
C1155      C1156   1.399       .  A
C1155      H1165   1.083       .  S
C1156      H1166   1.079       .  S
C1167      C1168   1.406       .  A
C1167      C1172   1.407       .  A
C1168      C1169   1.393       .  A
C1168      H1181   1.079       .  S
C1169      C1170   1.399       .  A
C1169      H1182   1.084       .  S
C1170      C1173   1.487       .  S
C1170      C1171   1.410       .  A
C1171      C1172   1.408       .  A
C1171      H1183   1.082       .  S
C1172      H1184   1.083       .  S
C1173      C1174   1.345       .  D
C1173      H1185   1.087       .  S
C1174      C1175   1.490       .  S
C1174      H1186   1.087       .  S
C1175      C1176   1.402       .  A
C1175      C1180   1.409       .  A
C1176      C1177   1.400       .  A
C1176      H1187   1.084       .  S
C1177      C1178   1.407       .  A
C1177      H1188   1.083       .  S
C1178      C1179   1.405       .  A
C1179      C1180   1.404       .  A
C1179      H1189   1.083       .  S
C1180      H1190   1.082       .  S
C1191      C1192   1.405       .  A
C1191      C1196   1.406       .  A
C1192      C1193   1.399       .  A
C1192      H1205   1.083       .  S
C1193      C1194   1.404       .  A
C1193      H1206   1.084       .  S
C1194      C1197   1.494       .  S
C1194      C1195   1.410       .  A
C1195      C1196   1.404       .  A
C1195      H1207   1.081       .  S
C1196      H1208   1.083       .  S
C1197      C1198   1.351       .  D
C1197      H1209   1.083       .  S
C1198      C1199   1.497       .  S
C1198      H1210   1.085       .  S
C1199      C1200   1.406       .  A
C1199      C1204   1.410       .  A
C1200      C1201   1.401       .  A
C1200      H1211   1.083       .  S
C1201      C1202   1.402       .  A
C1201      H1212   1.083       .  S
C1202      C1203   1.405       .  A
C1203      C1204   1.400       .  A
C1203      H1213   1.082       .  S
C1204      H1214   1.080       .  S
C1215      C1216   1.405       .  A
C1215      C1220   1.406       .  A
C1216      C1217   1.400       .  A
C1216      H1229   1.083       .  S
C1217      C1218   1.405       .  A
C1217      H1230   1.083       .  S
C1218      C1221   1.501       .  S
C1218      C1219   1.413       .  A
C1219      C1220   1.407       .  A
C1219      H1231   1.080       .  S
C1220      H1232   1.083       .  S
C1221      C1222   1.352       .  D
C1221      H1233   1.085       .  S
C1222      C1223   1.497       .  S
C1222      H1234   1.083       .  S
C1223      C1224   1.404       .  A
C1223      C1228   1.411       .  A
C1224      C1225   1.399       .  A
C1224      H1235   1.083       .  S
C1225      C1226   1.408       .  A
C1225      H1236   1.083       .  S
C1226      C1227   1.405       .  A
C1227      C1228   1.406       .  A
C1227      H1237   1.083       .  S
C1228      H1238   1.082       .  S
C1239      C1240   1.414       .  A
C1239      C1244   1.412       .  A
C1240      C1241   1.392       .  A
C1240      H1253   1.074       .  S
C1241      C1242   1.394       .  A
C1241      H1254   1.084       .  S
C1242      C1245   1.482       .  S
C1242      C1243   1.406       .  A
C1243      C1244   1.406       .  A
C1243      H1255   1.083       .  S
C1244      H1256   1.081       .  S
C1245      C1246   1.345       .  D
C1245      H1257   1.086       .  S
C1246      C1247   1.488       .  S
C1246      H1258   1.087       .  S
C1247      C1248   1.403       .  A
C1247      C1252   1.408       .  A
C1248      C1249   1.399       .  A
C1248      H1259   1.083       .  S
C1249      C1250   1.405       .  A
C1249      H1260   1.083       .  S
C1250      C1251   1.406       .  A
C1251      C1252   1.401       .  A
C1251      H1261   1.083       .  S
C1252      H1262   1.082       .  S
C1263      C1264   1.404       .  A
C1263      C1268   1.407       .  A
C1264      C1265   1.400       .  A
C1264      H1277   1.083       .  S
C1265      C1266   1.404       .  A
C1265      H1278   1.083       .  S
C1266      C1269   1.487       .  S
C1266      C1267   1.406       .  A
C1267      C1268   1.402       .  A
C1267      H1279   1.083       .  S
C1268      H1280   1.083       .  S
C1269      C1270   1.349       .  D
C1269      H1281   1.086       .  S
C1270      C1271   1.489       .  S
C1270      H1282   1.086       .  S
C1271      C1272   1.407       .  A
C1271      C1276   1.404       .  A
C1272      C1273   1.405       .  A
C1272      H1283   1.083       .  S
C1273      C1274   1.405       .  A
C1273      H1284   1.083       .  S
C1274      C1275   1.405       .  A
C1275      C1276   1.396       .  A
C1275      H1285   1.082       .  S
C1276      H1286   1.083       .  S
C1287      C1288   1.405       .  A
C1287      C1292   1.406       .  A
C1288      C1289   1.399       .  A
C1288      H1301   1.083       .  S
C1289      C1290   1.405       .  A
C1289      H1302   1.083       .  S
C1290      C1293   1.494       .  S
C1290      C1291   1.410       .  A
C1291      C1292   1.404       .  A
C1291      H1303   1.081       .  S
C1292      H1304   1.083       .  S
C1293      C1294   1.352       .  D
C1293      H1305   1.084       .  S
C1294      C1295   1.498       .  S
C1294      H1306   1.085       .  S
C1295      C1296   1.407       .  A
C1295      C1300   1.411       .  A
C1296      C1297   1.402       .  A
C1296      H1307   1.083       .  S
C1297      C1298   1.401       .  A
C1297      H1308   1.083       .  S
C1298      C1299   1.405       .  A
C1299      C1300   1.401       .  A
C1299      H1309   1.083       .  S
C1300      H1310   1.080       .  S
C1311      C1312   1.404       .  A
C1311      C1316   1.403       .  A
C1312      C1313   1.394       .  A
C1312      H1325   1.083       .  S
C1313      C1314   1.401       .  A
C1313      H1326   1.084       .  S
C1314      C1317   1.478       .  S
C1314      C1315   1.407       .  A
C1315      C1316   1.397       .  A
C1315      H1327   1.082       .  S
C1316      H1328   1.083       .  S
C1317      C1318   1.346       .  D
C1317      H1329   1.081       .  S
C1318      C1319   1.486       .  S
C1318      H1330   1.086       .  S
C1319      C1320   1.405       .  A
C1319      C1324   1.410       .  A
C1320      C1321   1.395       .  A
C1320      H1331   1.083       .  S
C1321      C1322   1.400       .  A
C1321      H1332   1.082       .  S
C1322      C1323   1.400       .  A
C1323      C1324   1.393       .  A
C1323      H1333   1.083       .  S
C1324      H1334   1.078       .  S
C1335      C1336   1.402       .  A
C1335      C1340   1.399       .  A
C1336      C1337   1.392       .  A
C1336      H1349   1.083       .  S
C1337      C1338   1.401       .  A
C1337      H1350   1.083       .  S
C1338      C1341   1.479       .  S
C1338      C1339   1.409       .  A
C1339      C1340   1.395       .  A
C1339      H1351   1.081       .  S
C1340      H1352   1.084       .  S
C1341      C1342   1.344       .  D
C1341      H1353   1.084       .  S
C1342      C1343   1.482       .  S
C1342      H1354   1.085       .  S
C1343      C1344   1.402       .  A
C1343      C1348   1.410       .  A
C1344      C1345   1.394       .  A
C1344      H1355   1.084       .  S
C1345      C1346   1.403       .  A
C1345      H1356   1.083       .  S
C1346      C1347   1.401       .  A
C1347      C1348   1.395       .  A
C1347      H1357   1.083       .  S
C1348      H1358   1.080       .  S
C1359      C1360   1.404       .  A
C1359      C1364   1.402       .  A
C1360      C1361   1.396       .  A
C1360      H1373   1.083       .  S
C1361      C1362   1.402       .  A
C1361      H1374   1.084       .  S
C1362      C1365   1.480       .  S
C1362      C1363   1.407       .  A
C1363      C1364   1.395       .  A
C1363      H1375   1.082       .  S
C1364      H1376   1.083       .  S
C1365      C1366   1.344       .  D
C1365      H1377   1.085       .  S
C1366      C1367   1.479       .  S
C1366      H1378   1.086       .  S
C1367      C1368   1.402       .  A
C1367      C1372   1.409       .  A
C1368      C1369   1.392       .  A
C1368      H1379   1.084       .  S
C1369      C1370   1.398       .  A
C1369      H1380   1.080       .  S
C1370      C1371   1.401       .  A
C1371      C1372   1.397       .  A
C1371      H1381   1.083       .  S
C1372      H1382   1.081       .  S
C1383      C1384   1.399       .  A
C1383      C1388   1.401       .  A
C1384      C1385   1.393       .  A
C1384      H1397   1.081       .  S
C1385      C1386   1.404       .  A
C1385      H1398   1.084       .  S
C1386      C1389   1.482       .  S
C1386      C1387   1.409       .  A
C1387      C1388   1.394       .  A
C1387      H1399   1.079       .  S
C1388      H1400   1.083       .  S
C1389      C1390   1.345       .  D
C1389      H1401   1.087       .  S
C1390      C1391   1.474       .  S
C1390      H1402   1.082       .  S
C1391      C1392   1.400       .  A
C1391      C1396   1.406       .  A
C1392      C1393   1.395       .  A
C1392      H1403   1.083       .  S
C1393      C1394   1.404       .  A
C1393      H1404   1.083       .  S
C1394      C1395   1.402       .  A
C1395      C1396   1.393       .  A
C1395      H1405   1.083       .  S
C1396      H1406   1.083       .  S
C1407      C1408   1.403       .  A
C1407      C1412   1.399       .  A
C1408      C1409   1.394       .  A
C1408      H1421   1.083       .  S
C1409      C1410   1.402       .  A
C1409      H1422   1.083       .  S
C1410      C1413   1.479       .  S
C1410      C1411   1.409       .  A
C1411      C1412   1.394       .  A
C1411      H1423   1.082       .  S
C1412      H1424   1.083       .  S
C1413      C1414   1.344       .  D
C1413      H1425   1.085       .  S
C1414      C1415   1.480       .  S
C1414      H1426   1.086       .  S
C1415      C1416   1.402       .  A
C1415      C1420   1.409       .  A
C1416      C1417   1.392       .  A
C1416      H1427   1.084       .  S
C1417      C1418   1.403       .  A
C1417      H1428   1.083       .  S
C1418      C1419   1.402       .  A
C1419      C1420   1.397       .  A
C1419      H1429   1.083       .  S
C1420      H1430   1.080       .  S
C1431      C1432   1.402       .  A
C1431      C1436   1.400       .  A
C1432      C1433   1.395       .  A
C1432      H1445   1.083       .  S
C1433      C1434   1.410       .  A
C1433      H1446   1.079       .  S
C1434      C1437   1.490       .  S
C1434      C1435   1.407       .  A
C1435      C1436   1.398       .  A
C1435      H1447   1.083       .  S
C1436      H1448   1.083       .  S
C1437      C1438   1.349       .  D
C1437      H1449   1.086       .  S
C1438      C1439   1.484       .  S
C1438      H1450   1.082       .  S
C1439      C1440   1.403       .  A
C1439      C1444   1.407       .  A
C1440      C1441   1.397       .  A
C1440      H1451   1.084       .  S
C1441      C1442   1.404       .  A
C1441      H1452   1.083       .  S
C1442      C1443   1.404       .  A
C1443      C1444   1.397       .  A
C1443      H1453   1.083       .  S
C1444      H1454   1.082       .  S
C1455      C1456   1.404       .  A
C1455      C1460   1.404       .  A
C1456      C1457   1.392       .  A
C1456      H1469   1.083       .  S
C1457      C1458   1.399       .  A
C1457      H1470   1.084       .  S
C1458      C1461   1.470       .  S
C1458      C1459   1.405       .  A
C1459      C1460   1.397       .  A
C1459      H1471   1.083       .  S
C1460      H1472   1.083       .  S
C1461      C1462   1.344       .  D
C1461      H1473   1.084       .  S
C1462      C1463   1.479       .  S
C1462      H1474   1.087       .  S
C1463      C1464   1.403       .  A
C1463      C1468   1.408       .  A
C1464      C1465   1.396       .  A
C1464      H1475   1.083       .  S
C1465      C1466   1.400       .  A
C1465      H1476   1.083       .  S
C1466      C1467   1.400       .  A
C1467      C1468   1.391       .  A
C1467      H1477   1.084       .  S
C1468      H1478   1.081       .  S
C1479      C1480   1.403       .  A
C1479      C1484   1.402       .  A
C1480      C1481   1.397       .  A
C1480      H1493   1.083       .  S
C1481      C1482   1.404       .  A
C1481      H1494   1.083       .  S
C1482      C1485   1.485       .  S
C1482      C1483   1.409       .  A
C1483      C1484   1.394       .  A
C1483      H1495   1.080       .  S
C1484      H1496   1.083       .  S
C1485      C1486   1.346       .  D
C1485      H1497   1.084       .  S
C1486      C1487   1.482       .  S
C1486      H1498   1.083       .  S
C1487      C1488   1.403       .  A
C1487      C1492   1.410       .  A
C1488      C1489   1.393       .  A
C1488      H1499   1.083       .  S
C1489      C1490   1.403       .  A
C1489      H1500   1.083       .  S
C1490      C1491   1.400       .  A
C1491      C1492   1.395       .  A
C1491      H1501   1.083       .  S
C1492      H1502   1.080       .  S
