geometry optimzed in LAMMPS
_audit_creation_date              2020-11-30 
_audit_creation_method            'lammps2cif' 
_symmetry_space_group_name_H-M    'P1' 
_symmetry_Int_Tables_number       1 
_symmetry_cell_setting            triclinic 
loop_ 
_symmetry_equiv_pos_as_xyz 
  x,y,z 
_cell_length_a                    40.04030145 
_cell_length_b                    37.10339059033033 
_cell_length_c                    37.65731559038094 
_cell_angle_alpha                 90.20752334019903 
_cell_angle_beta                  89.46256120685756 
_cell_angle_gamma                 89.62962047940259 
loop_ 
_atom_site_label 
_atom_site_type_symbol 
_atom_site_fract_x 
_atom_site_fract_y 
_atom_site_fract_z 
_atom_site_charge 
C1          C  0.24870761  0.18229209  0.07399626     0.03300
C2          C  0.24183261  0.16176662  0.10456906    -0.12900
C3          C  0.21849368  0.13356744  0.10427854     0.00800
C4          C  0.19546495  0.13283284  0.07689041    -0.11400
C5          C  0.19939254  0.15151992  0.04501223     0.03200
C6          C  0.22833262  0.17484741  0.04284752    -0.10800
H7          H  0.25679832  0.16602158  0.12796269     0.08800
H8          H  0.17430047  0.11576152  0.07964890     0.06400
H9          H  0.23706491  0.18588145  0.51815186     0.06200
C10         C  0.06424357  0.07682562  0.36839120     0.03300
C11         C  0.06650206  0.10820468  0.34881917    -0.12900
C12         C  0.04665871  0.11449610  0.31956870     0.00800
C13         C  0.02702879  0.08684674  0.30590413    -0.11400
C14         C  0.52445214  0.05222269  0.32195043     0.03200
C15         C  0.04287724  0.04789133  0.35500194    -0.10800
H16         H  0.08197656  0.12995197  0.35852861     0.08800
H17         H  0.51222922  0.09362744  0.28276598     0.06400
H18         H  0.54063573  0.52445055  0.36947607     0.06200
C19         C  0.44385398  0.37386321  0.18216405     0.03300
C20         C  0.41490583  0.36535387  0.16015370    -0.12900
C21         C  0.40747379  0.32830825  0.15038095     0.00800
C22         C  0.42842172  0.30192351  0.16506259    -0.11400
C23         C  0.45960688  0.31011969  0.17864733     0.03200
C24         C  0.46643493  0.34559327  0.18916901    -0.10800
H25         H  0.39891149  0.38690325  0.15111323     0.08800
H26         H  0.42361315  0.27365523  0.15991944     0.06400
H27         H  0.49039301  0.35168960  0.20082513     0.06200
C28         C  0.15686512  0.18131313  0.17662728     0.80300
N29         N  0.16272871  0.21120083  0.19647483    -0.78000
C30         C  0.17801476  0.20942184  0.22837730     0.82800
N31         N  0.18827267  0.17662036  0.24006598    -0.77900
C32         C  0.18229897  0.14651432  0.22070152     0.82900
N33         N  0.16624158  0.14876833  0.18925340    -0.79600
O34         O  0.15454231  0.38640130  0.33971183    -0.85200
O35         O  0.17688424  0.31477980  0.34912808    -0.82300
C36         C  0.18539735  0.28815330  0.36714287     0.98200
O37         O  0.21674446  0.28597491  0.37241244    -0.82300
O38         O  0.23605192  0.30692156  0.30302633    -0.85000
C39         C  0.24868523  0.32007666  0.27531994     1.02800
O40         O  0.25005445  0.35508520  0.27410500    -0.77700
O41         O  0.18514168  0.38654429  0.29165580    -0.77900
C42         C  0.15712857  0.39228458  0.30651840     1.02700
O43         O  0.19553528  0.40678472  0.39600302    -0.85200
O44         O  0.21530253  0.33655442  0.41546172    -0.82300
C45         C  0.24672650  0.33105674  0.42261056     0.98300
O46         O  0.26765157  0.33545287  0.39788510    -0.82300
O47         O  0.29105908  0.35085959  0.32825942    -0.84900
C48         C  0.29860390  0.38382793  0.32109498     1.02700
O49         O  0.27651244  0.40758025  0.32625772    -0.77700
O50         O  0.21158385  0.43518414  0.34686429    -0.77900
C51         C  0.20029150  0.43576839  0.37948426     1.02700
Cr52       Cr  0.18802141  0.36050947  0.37337499     1.93700
Cr53       Cr  0.25127002  0.32287297  0.34977676     1.93200
Cr54       Cr  0.23001187  0.39372133  0.31253906     1.39100
O55         O  0.22439253  0.36125878  0.34680703    -1.23000
C56         C  0.00734376  0.04572141  0.12283824     0.03300
C57         C  0.98011752  0.55448052  0.10122920    -0.12900
C58         C  0.98454558  0.54806261  0.06519659     0.00800
C59         C  0.01454700  0.05869542  0.05052399    -0.11400
C60         C  0.04177260  0.06835201  0.07215624     0.03200
C61         C  0.03924819  0.05754938  0.10901798    -0.10800
H62         H  0.95524188  0.55003240  0.11172362     0.08800
H63         H  0.01819802  0.05481421  0.02227207     0.06400
H64         H  0.06127458  0.05626376  0.12531455     0.06200
C65         C  0.12912118  0.22853461  0.43113220     0.03300
C66         C  0.10976467  0.25750145  0.44428896    -0.12900
C67         C  0.11049173  0.29161451  0.42814914     0.00800
C68         C  0.13340834  0.29689644  0.40055193    -0.11400
C69         C  0.15826140  0.27202798  0.39101296     0.03200
C70         C  0.15475843  0.23641017  0.40487591    -0.10800
H71         H  0.09426459  0.25278252  0.46716174     0.08800
H72         H  0.13211617  0.32180917  0.38602942     0.06400
H73         H  0.17220995  0.21559307  0.39655254     0.06200
C74         C  0.33092911  0.39124928  0.29987317     0.03300
C75         C  0.34994538  0.42422285  0.29492443    -0.12900
C76         C  0.38044503  0.42391711  0.27342185     0.00800
C77         C  0.39001556  0.39068598  0.25871349    -0.11400
C78         C  0.37356421  0.35885865  0.26515331     0.03200
C79         C  0.34245853  0.36072569  0.28181349    -0.10800
H80         H  0.34135857  0.44874408  0.30734235     0.08800
H81         H  0.41203597  0.38841303  0.24268866     0.06400
H82         H  0.32757654  0.33675404  0.28274871     0.06200
C83         C  0.40913950  0.34335157  0.00280750     0.80300
N84         N  0.42976319  0.36476258  0.98312400    -0.78000
C85         C  0.42614192  0.35653448  0.44671195     0.82800
N86         N  0.40641465  0.33243106  0.43101070    -0.77900
C87         C  0.38326462  0.31375646  0.44980178     0.82900
N88         N  0.38103344  0.31757287  0.48558770    -0.79600
O89         O  0.17306071  0.13998999  0.48485881    -0.85200
O90         O  0.15705042  0.07066777  0.46482100    -0.82300
C91         C  0.14450659  0.54118335  0.45790629     0.98200
O92         O  0.11236925  0.53818138  0.46135917    -0.82300
O93         O  0.08634526  0.06529168  0.02924691    -0.85000
C94         C  0.07169634  0.08428487  0.05249585     1.02800
O95         O  0.07457149  0.11849323  0.04970003    -0.77700
O96         O  0.14188722  0.14005226  0.03364228    -0.77900
C97         C  0.17003399  0.14495285  0.01899436     1.02700
O98         O  0.12428367  0.16357643  0.42930526    -0.85200
O99         O  0.11048026  0.09152613  0.40868590    -0.82300
C100        C  0.07975314  0.08152168  0.40497789     0.98300
O101        O  0.06056536  0.08205522  0.43154477    -0.82300
O102        O  0.03387453  0.11108465  0.99476857    -0.84900
C103        C  0.03045046  0.14595832  0.99749888     1.02700
O104        O  0.05583505  0.16510766  0.99367659    -0.77700
O105        O  0.12018893  0.18848788  0.48193496    -0.77900
C106        C  0.12392890  0.19163189  0.44816536     1.02700
Cr107      Cr  0.13813356  0.11624202  0.44937788     1.93700
Cr108      Cr  0.07603297  0.07648031  0.48062660     1.93200
Cr109      Cr  0.09867399  0.15016207  0.01158928     1.39100
O110        O  0.10442831  0.11393869  0.48060410    -1.23000
C111        C  0.99790808  0.16792463  0.00035666     0.03300
C112        C  0.97738864  0.17606177  0.03163695    -0.12900
C113        C  0.95382701  0.20636669  0.03156827     0.00800
C114        C  0.45151283  0.22657585  0.00007786    -0.11400
C115        C  0.96975395  0.21561333  0.47211172     0.03200
C116        C  0.99472031  0.18942717  0.47334433    -0.10800
H117        H  0.97980535  0.15967075  0.05518808     0.08800
H118        H  0.43247685  0.24736043  0.99751257     0.05200
H119        H  0.00974853  0.18505412  0.44970747     0.06200
C120        C  0.30454158  0.26613313  0.20319165     0.03300
C121        C  0.30063090  0.23227750  0.21795655    -0.12900
C122        C  0.28200265  0.22690919  0.24856009     0.00800
C123        C  0.26074609  0.25478455  0.26074577    -0.11400
C124        C  0.26427662  0.29134735  0.24925667     0.03200
C125        C  0.28638020  0.29654832  0.21897455    -0.10800
H126        H  0.31315278  0.20930868  0.20569170     0.08800
H127        H  0.24536001  0.24862078  0.28362997     0.06400
H128        H  0.28983579  0.32332135  0.20832841     0.06200
C129        C  0.19848933  0.46941220  0.40242630     0.03300
C130        C  0.16862025  0.48650940  0.41742418    -0.12900
C131        C  0.17081653  0.51234747  0.44632600     0.00800
C132        C  0.20329949  0.51776791  0.46043164    -0.11400
C133        C  0.23189447  0.50121727  0.44585495     0.03200
C134        C  0.22917395  0.47801423  0.41704211    -0.10800
H135        H  0.14453784  0.48064808  0.40614159     0.08800
H136        H  0.20691283  0.53685253  0.48187100     0.06400
H137        H  0.25164661  0.46497706  0.40679546     0.06200
C138        C  0.42640884  0.05096337  0.31999417     0.80300
N139        N  0.43578154  0.02534625  0.34341430    -0.78000
C140        C  0.41533997  0.99804248  0.35250011     0.82800
N141        N  0.38517093  0.99536779  0.33631368    -0.77900
C142        C  0.37637782  0.01915759  0.31087200     0.82900
N143        N  0.39663793  0.04758930  0.30388657    -0.79600
O144        O  0.42433836  0.21716651  0.08997504    -0.85200
O145        O  0.39797716  0.28611298  0.10427214    -0.82300
C146        C  0.38507498  0.31188292  0.12099622     0.98200
O147        O  0.35313405  0.31367907  0.11854458    -0.82300
O148        O  0.33318169  0.29001730  0.04445321    -0.85000
C149        C  0.32672356  0.26815759  0.52078266     1.02800
O150        O  0.33065925  0.23544470  0.02315160    -0.77700
O151        O  0.39600710  0.21818273  0.04086614    -0.77900
C152        C  0.42357774  0.21340226  0.05614298     1.02700
O153        O  0.38109736  0.18920289  0.14494040    -0.85200
O154        O  0.35536755  0.25898408  0.16552595    -0.82300
C155        C  0.32336831  0.26464836  0.16829860     0.98300
O156        O  0.30552698  0.26265356  0.14132657    -0.82300
O157        O  0.28374297  0.23843723  0.07678094    -0.84900
C158        C  0.28182288  0.20354880  0.07517436     1.02700
O159        O  0.30855923  0.18524530  0.07654126    -0.77700
O160        O  0.37513098  0.16567452  0.09176832    -0.77900
C161        C  0.38240934  0.16193868  0.12465066     1.02700
Cr162      Cr  0.38709642  0.23856168  0.12429339     1.93700
Cr163      Cr  0.32206925  0.27345730  0.09423507     1.93200
Cr164      Cr  0.35277441  0.20389741  0.06080364     1.39100
O165        O  0.35309634  0.23750021  0.09416406    -1.23000
C166        C  0.38986635  0.12402942  0.13792546     0.03300
C167        C  0.41266879  0.11309276  0.16528897    -0.12900
C168        C  0.41641165  0.07547090  0.17396258     0.00800
C169        C  0.39664576  0.05029626  0.15509123    -0.11400
C170        C  0.37289989  0.06081043  0.13005825     0.03200
C171        C  0.37192237  0.09723258  0.12056118    -0.10800
H172        H  0.42697282  0.13315692  0.17933331     0.08800
H173        H  0.40017314  0.02184383  0.15979663     0.06400
H174        H  0.35504997  0.10587369  0.10016870     0.06200
C175        C  0.08151998  0.43968698  0.25533366     0.03300
C176        C  0.08526375  0.41849289  0.22506116    -0.12900
C177        C  0.10768617  0.38979090  0.22269705     0.00800
C178        C  0.12842713  0.38150646  0.25066404    -0.11400
C179        C  0.12784851  0.40171375  0.28218087     0.03200
C180        C  0.10304198  0.43076817  0.28523077    -0.10800
H181        H  0.06866639  0.42305474  0.20292576     0.08800
H182        H  0.14624324  0.35965563  0.24716874     0.06400
H183        H  0.10073433  0.44589599  0.30975176     0.06200
C184        C  0.25740396  0.31209485  0.45721586     0.03300
C185        C  0.23196146  0.29381619  0.47497982    -0.12900
C186        C  0.23947555  0.26905927  0.50161519     0.00800
C187        C  0.27100432  0.25588449  0.50413403    -0.11400
C188        C  0.29762513  0.27793454  0.49650979     0.03200
C189        C  0.29075300  0.30763439  0.47240466    -0.10800
H190        H  0.20611732  0.29819741  0.46790436     0.08800
H191        H  0.27427763  0.23079811  0.51739552     0.06400
H192        H  0.30999835  0.32655898  0.46661829     0.06200
C193        C  0.10216443  0.46818185  0.02137122     0.80300
N194        N  0.12809172  0.98523661  0.03623880    -0.78000
C195        C  0.15873510  0.97113371  0.02949548     0.82800
N196        N  0.16304151  0.43976913  0.00788557    -0.77900
C197        C  0.13591873  0.42376852  0.99398727     0.82900
N198        N  0.10586448  0.43957527  0.99907909    -0.79600
O199        O  0.49912980  0.49210436  0.30337835    -0.85200
O200        O  0.42944301  0.46301451  0.28251886    -0.82300
C201        C  0.40476867  0.45429217  0.26306960     0.98200
O202        O  0.40654846  0.46225113  0.23032845    -0.82300
O203        O  0.42561521  0.03229243  0.21900427    -0.85000
C204        C  0.43780803  0.05874305  0.20316035     1.02800
O205        O  0.46946179  0.06226007  0.20571310    -0.77700
O206        O  0.48700341  0.03859063  0.27492739    -0.77900
C207        C  0.50183313  0.02529701  0.30088181     1.02700
O208        O  0.52290167  0.44076839  0.25291092    -0.85200
O209        O  0.46167877  0.41468706  0.23042606    -0.82300
C210        C  0.45255848  0.41121731  0.19758865     0.98300
O211        O  0.45028292  0.43901857  0.17838588    -0.82300
O212        O  0.46954111  0.01088959  0.15998099    -0.84900
C213        C  0.49972122  0.02215924  0.15526824     1.02700
O214        O  0.52084691  0.01662040  0.17934750    -0.77700
O215        O  0.04482181  0.49486286  0.24820227    -0.77900
C216        C  0.54828019  0.46047235  0.25434835     1.02700
Cr217      Cr  0.47744437  0.45586577  0.26465720     1.93700
Cr218      Cr  0.44119488  0.48728273  0.19896459     1.93200
Cr219      Cr  0.50339938  0.02458889  0.22819128     1.39100
O220        O  0.47539192  0.48783349  0.22904785    -1.23000
C221        C  0.13722082  0.38402169  0.99277767    -0.11800
C222        C  0.16856763  0.36740656  0.99492634     0.03600
C223        C  0.17214010  0.33681373  0.01505652    -0.12400
C224        C  0.14644219  0.31882945  0.53118319     0.18500
C225        C  0.11381147  0.33073121  0.52447033    -0.09400
C226        C  0.10892501  0.36367311  0.50718843    -0.02400
H227        H  0.19721552  0.32851573  0.02097293     0.05000
C228        C  0.15479912  0.28451137  0.54917849     0.20500
H229        H  0.08382921  0.37412629  0.50505474     0.10200
C230        C  0.15494069  0.25483433  0.52568928    -0.15800
C231        C  0.18599138  0.24211500  0.51337188     0.03200
C232        C  0.21436925  0.25721247  0.52715864    -0.11100
C233        C  0.21297662  0.27410376  0.56042464    -0.01100
C234        C  0.18207901  0.28688973  0.57275736    -0.06300
H235        H  0.13293836  0.24890251  0.51074213     0.06200
H236        H  0.23555558  0.28446655  0.57221103     0.09600
Br237      Br  0.07563913  0.30490732  0.54043746    -0.06000
Br238      Br  0.20851271  0.38830754  0.97641997    -0.02900
Br239      Br  0.19364581  0.21398744  0.47158660    -0.00100
Br240      Br  0.18331355  0.32344443  0.60886918    -0.04400
C241        C  0.07135467  0.46829528  0.04353926    -0.11800
C242        C  0.05268639  0.43616231  0.04175792     0.03600
C243        C  0.05868711  0.40968277  0.06705478    -0.12400
C244        C  0.07411467  0.41966969  0.09856199     0.18500
C245        C  0.07770727  0.45687564  0.10585608    -0.09400
C246        C  0.07624131  0.48147596  0.07800325    -0.02400
H247        H  0.05212433  0.38199888  0.06172256     0.05000
C248        C  0.08918353  0.39278842  0.12216274     0.20500
H249        H  0.08465945  0.00889617  0.08339222     0.10200
C250        C  0.12268299  0.39793010  0.13133812    -0.15800
C251        C  0.13391343  0.38673796  0.16434773     0.03200
C252        C  0.11077076  0.37178851  0.18824853    -0.11100
C253        C  0.08117428  0.35720360  0.17488350    -0.01100
C254        C  0.07002002  0.36792511  0.14154640    -0.06300
H255        H  0.13858178  0.41492913  0.11514125     0.06200
H256        H  0.06422855  0.34293934  0.19241251     0.09600
Br257      Br  0.08460887  0.47481206  0.15256609    -0.06000
Br258      Br  0.02865178  0.42323341  0.00097514    -0.02900
Br259      Br  0.17729994  0.40195292  0.17919119    -0.00100
Br260      Br  0.02892134  0.34869910  0.12483327    -0.04400
C261        C  0.18774351  0.98087854  0.05128307    -0.11800
C262        C  0.19530526  0.01664364  0.05909440     0.03600
C263        C  0.22590810  0.02506371  0.07435375    -0.12400
C264        C  0.24945087  0.99802193  0.08233740     0.18500
C265        C  0.23962629  0.96165621  0.07924127    -0.09400
C266        C  0.20909668  0.95347085  0.06350543    -0.02400
H267        H  0.23203925  0.05306442  0.07802177     0.05000
C268        C  0.28416682  0.00849394  0.09167798     0.20500
H269        H  0.20661950  0.42423198  0.05589619     0.10200
C270        C  0.29852487  0.99633704  0.12331927    -0.15800
C271        C  0.32913675  0.00986122  0.13532372     0.03200
C272        C  0.34686704  0.03574314  0.11484294    -0.11100
C273        C  0.33401689  0.04377246  0.08099715    -0.01100
C274        C  0.30264833  0.03243103  0.07033884    -0.06300
H275        H  0.28452107  0.97841600  0.14041869     0.06200
H276        H  0.34614179  0.06296282  0.06394694     0.09600
Br277      Br  0.26770079  0.92162869  0.09175363    -0.06000
Br278      Br  0.16557836  0.05448895  0.04655942    -0.02900
Br279      Br  0.34194982  0.99348938  0.18134714    -0.00100
Br280      Br  0.28526915  0.05623027  0.02918780    -0.04400
C281        C  0.26611428  0.51033332  0.45715963    -0.11800
C282        C  0.28552742  0.48585494  0.47682208     0.03600
C283        C  0.32020079  0.48840360  0.47682448    -0.12400
C284        C  0.33647693  0.51257613  0.45421855     0.18500
C285        C  0.31720943  0.53960177  0.43722311    -0.09400
C286        C  0.28226361  0.53863141  0.43960352    -0.02400
H287        H  0.33458308  0.46766648  0.49011827     0.05000
C288        C  0.36909750  0.50036380  0.43944970     0.20500
H289        H  0.26771377  0.55728487  0.42384798     0.10200
C290        C  0.37019209  0.46606745  0.42289175    -0.15800
C291        C  0.39577745  0.45754395  0.39879936     0.03200
C292        C  0.41838300  0.98378679  0.38871407    -0.11100
C293        C  0.42420678  0.01087676  0.41404479    -0.01100
C294        C  0.39774827  0.02193199  0.43595974    -0.06300
H295        H  0.34933357  0.44785720  0.42534292     0.06200
H296        H  0.44467426  0.02942646  0.41013879     0.09600
Br297      Br  0.33518393  0.07334974  0.40274351    -0.06000
Br298      Br  0.26721081  0.44498144  0.49957580    -0.02900
Br299      Br  0.39348308  0.41523132  0.36979919    -0.00100
Br300      Br  0.40071270  0.06912799  0.45632980    -0.04400
C301        C  0.28866951  0.19357797  0.26988996    -0.11800
C302        C  0.32142686  0.17879790  0.27284519     0.03600
C303        C  0.32565094  0.14463943  0.28682499    -0.12400
C304        C  0.29836578  0.12261358  0.29360105     0.18500
C305        C  0.26679999  0.13904688  0.29802795    -0.09400
C306        C  0.26230538  0.17476532  0.28642383    -0.02400
H307        H  0.35042030  0.13333343  0.28823453     0.05000
C308        C  0.30457292  0.08322569  0.29046635     0.20500
H309        H  0.23758198  0.18606091  0.28679793     0.10200
C310        C  0.29828331  0.05993607  0.31906333    -0.15800
C311        C  0.31602526  0.02729163  0.32123111     0.03200
C312        C  0.34221655  0.02059825  0.29694473    -0.11100
C313        C  0.34045695  0.03713478  0.26398694    -0.01100
C314        C  0.32345014  0.06962397  0.26102683    -0.06300
H315        H  0.28223179  0.06811133  0.34093292     0.06200
H316        H  0.35923864  0.03064235  0.24409813     0.09600
Br317      Br  0.22911470  0.11404258  0.31747277    -0.06000
Br318      Br  0.36220737  0.20038260  0.25594435    -0.02900
Br319      Br  0.30621186  0.99392906  0.35840806    -0.00100
Br320      Br  0.33204998  0.09577154  0.21791177    -0.04400
C321        C  0.44236484  0.08680914  0.32278000    -0.11800
C322        C  0.43206108  0.11739991  0.30330520     0.03600
C323        C  0.43721431  0.15196402  0.31710203    -0.12400
C324        C  0.45454853  0.15616192  0.34877776     0.18500
C325        C  0.47098007  0.12628870  0.36353359    -0.09400
C326        C  0.46353667  0.09216576  0.35169195    -0.02400
H327        H  0.42523620  0.17502347  0.30493730     0.05000
C328        C  0.44486213  0.18495005  0.37336780     0.20500
H329        H  0.47282096  0.06978364  0.36713244     0.10200
C330        C  0.42471180  0.17416116  0.40181381    -0.15800
C331        C  0.42660364  0.19142656  0.43416990     0.03200
C332        C  0.45134326  0.21785742  0.43890489    -0.11100
C333        C  0.46640954  0.23347284  0.40879394    -0.01100
C334        C  0.46213700  0.21749258  0.37541892    -0.06300
H335        H  0.41013844  0.14969209  0.39979848     0.06200
H336        H  0.98409871  0.25544888  0.41148066     0.09600
Br337      Br  0.49690108  0.12911044  0.40573659    -0.06000
Br338      Br  0.41008517  0.11441408  0.25905878    -0.02900
Br339      Br  0.40263942  0.16466418  0.97103624    -0.00100
Br340      Br  0.48044975  0.23905953  0.33375239    -0.04400
C341        C  0.35675127  0.29814154  0.42885817    -0.11800
C342        C  0.34588063  0.32304832  0.40320102     0.03600
C343        C  0.35823849  0.31806093  0.36902724    -0.12400
C344        C  0.37285440  0.28497282  0.35942717     0.18500
C345        C  0.36843560  0.25541055  0.38198079    -0.09400
C346        C  0.36180146  0.26230094  0.41793855    -0.02400
H347        H  0.35773473  0.34021896  0.35049205     0.05000
C348        C  0.38653518  0.28189824  0.32351205     0.20500
H349        H  0.36394672  0.24090655  0.43725751     0.10200
C350        C  0.41667668  0.29932693  0.31640113    -0.15800
C351        C  0.41964635  0.32025789  0.28579870     0.03200
C352        C  0.39153522  0.32329906  0.26342130    -0.11100
C353        C  0.37041172  0.29320356  0.26310014    -0.01100
C354        C  0.36390476  0.27724936  0.29611456    -0.06300
H355        H  0.43481303  0.30231522  0.33722939     0.06200
H356        H  0.35073946  0.29279775  0.24385196     0.09600
Br357      Br  0.36513113  0.20766531  0.36306840    -0.06000
Br358      Br  0.33279426  0.37136745  0.41648717    -0.02900
Br359      Br  0.45643764  0.35280126  0.28425340    -0.00100
Br360      Br  0.31926958  0.26527093  0.30951028    -0.04400
C361        C  0.08670485  0.32222395  0.43632441    -0.11800
C362        C  0.05293708  0.31726506  0.44657604     0.03600
C363        C  0.03009883  0.34503683  0.44132150    -0.12400
C364        C  0.03914559  0.37642819  0.42280784     0.18500
C365        C  0.07285464  0.38418310  0.41838884    -0.09400
C366        C  0.09645010  0.35782816  0.42689216    -0.02400
H367        H  0.00413768  0.33999011  0.44755002     0.05000
C368        C  0.01266400  0.39580717  0.40331666     0.20500
H369        H  0.12250588  0.36452350  0.42306302     0.10200
C370        C  0.99415683  0.42063898  0.42349612    -0.15800
C371        C  0.96314948  0.40985397  0.43700234     0.03200
C372        C  0.44976058  0.37754173  0.42511991    -0.11100
C373        C  0.46298479  0.36206601  0.39373614    -0.01100
C374        C  0.99443312  0.37272741  0.38125334    -0.06300
H375        H  0.00627423  0.44410372  0.43439493     0.06200
H376        H  0.45188512  0.33829278  0.38235888     0.09600
Br377      Br  0.08721007  0.42867372  0.39792592    -0.06000
Br378      Br  0.03328189  0.27346563  0.46313105    -0.02900
Br379      Br  0.94190249  0.43865290  0.47323143    -0.00100
Br380      Br  0.01796315  0.34306112  0.34738600    -0.04400
C381        C  0.41153696  0.34538939  0.04120532    -0.11800
C382        C  0.44414259  0.34733969  0.05388122     0.03600
C383        C  0.95342170  0.38011970  0.06833326    -0.12400
C384        C  0.43063900  0.40727874  0.07599784     0.18500
C385        C  0.39647924  0.39825070  0.07529969    -0.09400
C386        C  0.38693172  0.36701441  0.05736599    -0.02400
H387        H  0.97995705  0.38495924  0.06849124     0.05000
C388        C  0.44216566  0.44524381  0.07444374     0.20500
H389        H  0.36087716  0.36341157  0.05079273     0.10200
C390        C  0.92326655  0.47280633  0.05603700    -0.15800
C391        C  0.93748720  0.50671060  0.04981548     0.03200
C392        C  0.97144789  0.51220695  0.05611783    -0.11100
C393        C  0.98987951  0.48396749  0.07059755    -0.01100
C394        C  0.97434969  0.45379222  0.08367486    -0.06300
H395        H  0.89811875  0.46813268  0.04706560     0.06200
H396        H  0.01461956  0.48917291  0.07970116     0.09600
Br397      Br  0.36240223  0.42833485  0.09583069    -0.06000
Br398      Br  0.97705749  0.31442030  0.03769806    -0.02900
Br399      Br  0.90885999  0.04955329  0.04055412    -0.00100
Br400      Br  0.49712805  0.42980282  0.12203241    -0.04400
C401        C  0.13263866  0.18462678  0.14755075    -0.11800
C402        C  0.10368401  0.16312039  0.14852918     0.03600
C403        C  0.07233793  0.17980474  0.14720344    -0.12400
C404        C  0.07022630  0.21701324  0.14206650     0.18500
C405        C  0.09888843  0.23595885  0.13173327    -0.09400
C406        C  0.12998773  0.21915387  0.13291817    -0.02400
H407        H  0.05000838  0.16435262  0.15262360     0.05000
C408        C  0.03970931  0.23672407  0.15223925     0.20500
H409        H  0.15213586  0.23553536  0.12982544     0.10200
C410        C  0.53568174  0.24832509  0.18739710    -0.15800
C411        C  0.50959917  0.27167391  0.19724019     0.03200
C412        C  0.48671213  0.28337434  0.17150379    -0.11100
C413        C  0.49008237  0.27007558  0.13640664    -0.01100
C414        C  0.01661996  0.24736459  0.12674818    -0.06300
H415        H  0.55376295  0.24023413  0.20705419     0.06200
H416        H  0.47308378  0.27896596  0.11595474     0.09600
Br417      Br  0.09745771  0.28616965  0.12254925    -0.06000
Br418      Br  0.10520164  0.11221170  0.15533420    -0.02900
Br419      Br  0.50631090  0.28561273  0.24598633    -0.00100
Br420      Br  0.02228781  0.23372735  0.07802464    -0.04400
C421        C  0.04759889  0.15114356  0.30408817    -0.11800
C422        C  0.06075556  0.15661183  0.26982681     0.03600
C423        C  0.07559448  0.18953384  0.26157640    -0.12400
C424        C  0.07901306  0.21624034  0.28784538     0.18500
C425        C  0.06114728  0.21308838  0.31984118    -0.09400
C426        C  0.04489473  0.18078917  0.32746921    -0.02400
H427        H  0.08954547  0.19169049  0.23685710     0.05000
C428        C  0.11040975  0.23654942  0.28680075     0.20500
H429        H  0.03448063  0.17714682  0.35382946     0.10200
C430        C  0.11579211  0.26196166  0.25977600    -0.15800
C431        C  0.14789310  0.26496441  0.24484495     0.03200
C432        C  0.17210005  0.23918775  0.25452464    -0.11100
C433        C  0.17021935  0.22748500  0.28978990    -0.01100
C434        C  0.13850411  0.22136198  0.30392209    -0.06300
H435        H  0.09487756  0.27537284  0.24730874     0.06200
H436        H  0.19055443  0.21216052  0.30080051     0.09600
Br437      Br  0.06538058  0.24848270  0.35683134    -0.06000
Br438      Br  0.06662125  0.11771270  0.23683351    -0.02900
Br439      Br  0.15455728  0.29404157  0.20362944    -0.00100
Br440      Br  0.13504487  0.18224921  0.33711941    -0.04400
C441        C  0.19575813  0.11202723  0.23188878    -0.11800
C442        C  0.23031265  0.10588628  0.22911871     0.03600
C443        C  0.24184847  0.07027150  0.23187418    -0.12400
C444        C  0.21967352  0.04416599  0.21912123     0.18500
C445        C  0.18812887  0.04770662  0.23594816    -0.09400
C446        C  0.17467941  0.08271297  0.23940213    -0.02400
H447        H  0.26802964  0.06549071  0.22789383     0.05000
C448        C  0.22028272  0.04422004  0.17863465     0.20500
H449        H  0.14852357  0.08679226  0.24589758     0.10200
C450        C  0.25004988  0.05527019  0.16172510    -0.15800
C451        C  0.24996291  0.08573975  0.13978605     0.03200
C452        C  0.21955331  0.10215973  0.12961808    -0.11100
C453        C  0.19017246  0.08325137  0.13838727    -0.01100
C454        C  0.19092837  0.05312870  0.16042999    -0.06300
H455        H  0.27376943  0.04585482  0.17173739     0.06200
H456        H  0.16629547  0.09127319  0.12835415     0.09600
Br457      Br  0.16410576  0.00653840  0.25256099    -0.06000
Br458      Br  0.25885737  0.14159080  0.20827372    -0.02900
Br459      Br  0.29229376  0.10436072  0.12698442    -0.00100
Br460      Br  0.15194713  0.02452315  0.16403983    -0.04400
C461        C  0.25090915  0.18064190  0.57413291     0.03300
C462        C  0.24422932  0.15985043  0.60455400    -0.12900
C463        C  0.22125215  0.13138097  0.60401885     0.00800
C464        C  0.19913302  0.12951968  0.57588052    -0.11400
C465        C  0.20220647  0.14910472  0.54450899     0.03200
C466        C  0.23056601  0.17340518  0.54286250    -0.10800
H467        H  0.25885699  0.16439812  0.62814635     0.08800
H468        H  0.17888181  0.11132573  0.57811024     0.06400
H469        H  0.23502790  0.18653340  0.01779633     0.06200
C470        C  0.06654012  0.07555787  0.86698788     0.03300
C471        C  0.06936584  0.10628256  0.84658834    -0.12900
C472        C  0.04879448  0.11261250  0.81794712     0.00800
C473        C  0.02870310  0.08505468  0.80495631    -0.11400
C474        C  0.52662688  0.05030942  0.82134872     0.03200
C475        C  0.04473743  0.04672034  0.85442426    -0.10800
H476        H  0.08523464  0.12794246  0.85569956     0.08800
H477        H  0.51419008  0.09131966  0.78187742     0.06400
H478        H  0.54093001  0.52242400  0.87046141     0.06200
C479        C  0.44573549  0.37148423  0.68337813     0.03300
C480        C  0.41692390  0.36281398  0.66136875    -0.12900
C481        C  0.40997082  0.32578172  0.65157702     0.00800
C482        C  0.43154055  0.29956440  0.66576014    -0.11400
C483        C  0.46251996  0.30819319  0.67964212     0.03200
C484        C  0.46873156  0.34365277  0.69036615    -0.10800
H485        H  0.40074806  0.38421010  0.65215798     0.08800
H486        H  0.42725544  0.27125363  0.66030642     0.06400
H487        H  0.49256306  0.35010191  0.70215955     0.06200
C488        C  0.15967956  0.17912031  0.67934613     0.80300
N489        N  0.16623977  0.20897676  0.69901205    -0.78000
C490        C  0.18056969  0.20687246  0.73140280     0.82800
N491        N  0.18918283  0.17374368  0.74376021    -0.77900
C492        C  0.18245527  0.14368428  0.72458034     0.82900
N493        N  0.16740289  0.14634566  0.69261309    -0.79600
O494        O  0.15531679  0.38902452  0.83843760    -0.85200
O495        O  0.17523398  0.31722203  0.84820736    -0.82300
C496        C  0.18300416  0.28987647  0.86553470     0.98200
O497        O  0.21416880  0.28665278  0.87131330    -0.82300
O498        O  0.23462556  0.30690495  0.80238440    -0.85000
C499        C  0.24903684  0.31933293  0.77538651     1.02800
O500        O  0.25106134  0.35427778  0.77398911    -0.77700
O501        O  0.18620109  0.38594340  0.79068093    -0.77900
C502        C  0.15823971  0.39295522  0.80504942     1.02700
O503        O  0.19635472  0.40849669  0.89520682    -0.85200
O504        O  0.21352074  0.33749924  0.91466395    -0.82300
C505        C  0.24471997  0.33121300  0.92194801     0.98300
O506        O  0.26590645  0.33463904  0.89738514    -0.82300
O507        O  0.29031420  0.34952276  0.82840328    -0.84900
C508        C  0.29853599  0.38226303  0.82105957     1.02700
O509        O  0.27702498  0.40665449  0.82608766    -0.77700
O510        O  0.21219812  0.43573505  0.84535926    -0.77900
C511        C  0.20106608  0.43715057  0.87806528     1.02700
Cr512      Cr  0.18756682  0.36236445  0.87253740     1.93700
Cr513      Cr  0.24979044  0.32246043  0.84931012     1.93200
Cr514      Cr  0.23068141  0.39350096  0.81175691     1.39100
O515        O  0.22410806  0.36165201  0.84623887    -1.23000
C516        C  0.00756801  0.04483252  0.62452438     0.03300
C517        C  0.98015895  0.55341353  0.60354974    -0.12900
C518        C  0.98443347  0.54643184  0.56765305     0.00800
C519        C  0.01511429  0.05601745  0.55213427    -0.11400
C520        C  0.04212642  0.06686576  0.57371566     0.03200
C521        C  0.03949078  0.05665614  0.61073062    -0.10800
H522        H  0.95529034  0.54932331  0.61426880     0.08800
H523        H  0.01884170  0.05199395  0.52389755     0.06400
H524        H  0.06148665  0.05560811  0.62709398     0.06200
C525        C  0.12687604  0.22959999  0.92845753     0.03300
C526        C  0.10649579  0.25834237  0.94050622    -0.12900
C527        C  0.10683885  0.29204089  0.92343589     0.00800
C528        C  0.12872937  0.29651082  0.89485540    -0.11400
C529        C  0.15502880  0.27278763  0.88736312     0.03200
C530        C  0.15278288  0.23774908  0.90264073    -0.10800
H531        H  0.09060218  0.25387501  0.96318657     0.08800
H532        H  0.12615385  0.32054413  0.87900828     0.06400
H533        H  0.17132697  0.21760606  0.89552951     0.06200
C534        C  0.33088902  0.38863482  0.79979571     0.03300
C535        C  0.35028687  0.42119256  0.79455046    -0.12900
C536        C  0.38117676  0.41999209  0.77394242     0.00800
C537        C  0.39086123  0.38624508  0.76012189    -0.11400
C538        C  0.37373991  0.35466146  0.76697150     0.03200
C539        C  0.34216960  0.35753587  0.78243962    -0.10800
H540        H  0.34176218  0.44618762  0.80614722     0.08800
H541        H  0.41296745  0.38355948  0.74469560     0.06400
H542        H  0.32699297  0.33372329  0.78380358     0.06200
C543        C  0.40311008  0.33957645  0.50191319     0.80300
N544        N  0.42488433  0.35956470  0.48234516    -0.78000
C545        C  0.42591708  0.36754327  0.94765414     0.82800
N546        N  0.40196836  0.34832565  0.93217874    -0.77900
C547        C  0.38067919  0.32784983  0.95157483     0.82900
N548        N  0.38398722  0.32521684  0.98713442    -0.79600
O549        O  0.17185148  0.14180947  0.98487698    -0.85200
O550        O  0.15706522  0.07233690  0.96549419    -0.82300
C551        C  0.14505224  0.54254464  0.95731865     0.98200
O552        O  0.11291893  0.53909279  0.95996399    -0.82300
O553        O  0.08644749  0.06363962  0.53042170    -0.85000
C554        C  0.07232302  0.08255489  0.55405786     1.02800
O555        O  0.07636451  0.11669960  0.55204601    -0.77700
O556        O  0.14437060  0.13727983  0.53446660    -0.77900
C557        C  0.17217159  0.14263597  0.51909708     1.02700
O558        O  0.12426758  0.16442707  0.92762815    -0.85200
O559        O  0.11167889  0.09185029  0.90786545    -0.82300
C560        C  0.08115508  0.08137313  0.90371489     0.98300
O561        O  0.06137428  0.08226188  0.92979552    -0.82300
O562        O  0.03470300  0.11058923  0.49703799    -0.84900
C563        C  0.03190636  0.14543823  0.50040729     1.02700
O564        O  0.05756756  0.16432314  0.49724163    -0.77700
O565        O  0.11811026  0.19009885  0.97966283    -0.77900
C566        C  0.12246993  0.19280750  0.94598065     1.02700
Cr567      Cr  0.13815022  0.11747617  0.94877792     1.93700
Cr568      Cr  0.07602081  0.07737071  0.97911586     1.93200
Cr569      Cr  0.10060383  0.14838673  0.51379250     1.39100
O570        O  0.10378013  0.11528454  0.97907451    -1.23000
C571        C  0.99967668  0.16767015  0.50308347     0.03300
C572        C  0.97925837  0.17575314  0.53433628    -0.12900
C573        C  0.95568508  0.20587621  0.53414631     0.00800
C574        C  0.45378056  0.22662348  0.50318602    -0.11400
C575        C  0.96760212  0.21561539  0.96944213     0.03200
C576        C  0.99277905  0.18962736  0.97064432    -0.10800
H577        H  0.98165781  0.15935186  0.55788672     0.08800
H578        H  0.43481001  0.24749260  0.50075559     0.05200
H579        H  0.00728285  0.18474792  0.94669785     0.06200
C580        C  0.30624604  0.26445304  0.70502797     0.03300
C581        C  0.30301664  0.23084727  0.72060622    -0.12900
C582        C  0.28458296  0.22573889  0.75143462     0.00800
C583        C  0.26360904  0.25388881  0.76371131    -0.11400
C584        C  0.26615461  0.29011881  0.75096797     0.03200
C585        C  0.28777138  0.29489208  0.72027112    -0.10800
H586        H  0.31563936  0.20782669  0.70856415     0.08800
H587        H  0.24863763  0.24811982  0.78701637     0.06400
H588        H  0.29044423  0.32138341  0.70872294     0.06200
C589        C  0.19915966  0.47155286  0.90007188     0.03300
C590        C  0.16938515  0.48816155  0.91598662    -0.12900
C591        C  0.17192946  0.51487825  0.94412209     0.00800
C592        C  0.20478049  0.52164314  0.95656667    -0.11400
C593        C  0.23320988  0.50575108  0.94103345     0.03200
C594        C  0.23011276  0.48180211  0.91287065    -0.10800
H595        H  0.14505810  0.48111129  0.90609335     0.08800
H596        H  0.20875669  0.54088844  0.97778421     0.06400
H597        H  0.25250474  0.46897600  0.90224086     0.06200
C598        C  0.42709725  0.04712196  0.81875397     0.80300
N599        N  0.43640830  0.02174546  0.84243371    -0.78000
C600        C  0.41573517  0.99491749  0.85215206     0.82800
N601        N  0.38535233  0.99249519  0.83638954    -0.77900
C602        C  0.37661201  0.01594482  0.81060884     0.82900
N603        N  0.39719329  0.04388348  0.80291808    -0.79600
O604        O  0.42584384  0.21475712  0.59257034    -0.85200
O605        O  0.39980232  0.28347446  0.60607073    -0.82300
C606        C  0.38721254  0.30947224  0.62260331     0.98200
O607        O  0.35528571  0.31173650  0.62021687    -0.82300
O608        O  0.33501492  0.28874714  0.54609206    -0.85000
C609        C  0.32451164  0.26917148  0.01952908     1.02800
O610        O  0.33297923  0.23446540  0.52418102    -0.77700
O611        O  0.39821134  0.21816598  0.54321809    -0.77900
C612        C  0.42552736  0.21252193  0.55868513     1.02700
O613        O  0.38157520  0.18679463  0.64639963    -0.85200
O614        O  0.35684998  0.25691785  0.66731935    -0.82300
C615        C  0.32491477  0.26275307  0.67004858     0.98300
O616        O  0.30712098  0.26102628  0.64300620    -0.82300
O617        O  0.28563500  0.23690081  0.57812870    -0.84900
C618        C  0.28387586  0.20203016  0.57563807     1.02700
O619        O  0.31063046  0.18371467  0.57653699    -0.77700
O620        O  0.37685782  0.16409152  0.59267620    -0.77900
C621        C  0.38323269  0.15981510  0.62571418     1.02700
Cr622      Cr  0.38841755  0.23623408  0.62626302     1.93700
Cr623      Cr  0.32387143  0.27186123  0.59586511     1.93200
Cr624      Cr  0.35488483  0.20278775  0.56188625     1.39100
O625        O  0.35466398  0.23573867  0.59580393    -1.23000
C626        C  0.39020672  0.12170866  0.63861568     0.03300
C627        C  0.41267013  0.11052812  0.66611341    -0.12900
C628        C  0.41606619  0.07292820  0.67475607     0.00800
C629        C  0.39614975  0.04791124  0.65578226    -0.11400
C630        C  0.37272498  0.05862409  0.63038744     0.03200
C631        C  0.37229038  0.09511115  0.62083551    -0.10800
H632        H  0.42704703  0.13044054  0.68028327     0.08800
H633        H  0.39951421  0.01946305  0.66054583     0.06400
H634        H  0.35562361  0.10405619  0.60033089     0.06200
C635        C  0.08197263  0.43856637  0.75460167     0.03300
C636        C  0.08637203  0.41850474  0.72367987    -0.12900
C637        C  0.11051575  0.39162258  0.72018892     0.00800
C638        C  0.13159682  0.38362854  0.74784214    -0.11400
C639        C  0.12959596  0.40232274  0.78023105     0.03200
C640        C  0.10361214  0.42978512  0.78422650    -0.10800
H641        H  0.06923804  0.42257521  0.70192262     0.08800
H642        H  0.15043043  0.36293664  0.74352919     0.06400
H643        H  0.10047995  0.44383184  0.80927077     0.06200
C644        C  0.25482092  0.31236655  0.95651284     0.03300
C645        C  0.22950293  0.29320186  0.97341569    -0.12900
C646        C  0.23707283  0.26857517  0.00014466     0.00800
C647        C  0.26884660  0.25613688  0.00301188    -0.11400
C648        C  0.29519932  0.27877537  0.99561830     0.03200
C649        C  0.28785215  0.30888764  0.97221882    -0.10800
H650        H  0.20373626  0.29697159  0.96570329     0.08800
H651        H  0.27243049  0.23094398  0.01602984     0.06400
H652        H  0.30607101  0.32935023  0.96746970     0.06200
C653        C  0.09908156  0.46779704  0.52131945     0.80300
N654        N  0.12705857  0.98293054  0.53347068    -0.78000
C655        C  0.15810147  0.96929471  0.52791027     0.82800
N656        N  0.16063155  0.44000188  0.51010973    -0.77900
C657        C  0.13409926  0.42354782  0.49550832     0.82900
N658        N  0.10365695  0.43882432  0.49964434    -0.79600
O659        O  0.49983666  0.48901380  0.80441177    -0.85200
O660        O  0.42989029  0.45947429  0.78345499    -0.82300
C661        C  0.40550311  0.45033238  0.76371334     0.98200
O662        O  0.40736342  0.45829879  0.73100075    -0.82300
O663        O  0.42553515  0.02965557  0.71965459    -0.85000
C664        C  0.43753537  0.05623858  0.70389898     1.02800
O665        O  0.46910609  0.06035300  0.70679672    -0.77700
O666        O  0.48751312  0.03671998  0.77590601    -0.77900
C667        C  0.50309106  0.02355574  0.80142440     1.02700
O668        O  0.52349225  0.43863544  0.75353543    -0.85200
O669        O  0.46235571  0.41195747  0.73185886    -0.82300
C670        C  0.45393278  0.40863799  0.69888052     0.98300
O671        O  0.45218260  0.43639375  0.67958659    -0.82300
O672        O  0.47003039  0.00911581  0.66095332    -0.84900
C673        C  0.50008327  0.02086075  0.65641133     1.02700
O674        O  0.52119526  0.01532788  0.68040683    -0.77700
O675        O  0.04471845  0.49280487  0.74885072    -0.77900
C676        C  0.54857145  0.45879969  0.75457749     1.02700
Cr677      Cr  0.47800481  0.45305475  0.76575751     1.93700
Cr678      Cr  0.44167578  0.48417916  0.70000841     1.93200
Cr679      Cr  0.50361814  0.02318786  0.72906345     1.39100
O680        O  0.47559134  0.48523380  0.73030432    -1.23000
C681        C  0.13628864  0.38394109  0.49463242    -0.11800
C682        C  0.16807139  0.36824547  0.49578972     0.03600
C683        C  0.17313903  0.33821530  0.51640828    -0.12400
C684        C  0.14454342  0.31765352  0.02808711     0.18500
C685        C  0.11246399  0.33072216  0.02068927    -0.09400
C686        C  0.10897402  0.36423265  0.00400994    -0.02400
H687        H  0.19860582  0.33053745  0.52129362     0.05000
C688        C  0.15151485  0.28253406  0.04527265     0.20500
H689        H  0.08424967  0.37553309  0.00166823     0.10200
C690        C  0.15231058  0.25378506  0.02071504    -0.15800
C691        C  0.18366362  0.24083256  0.00942484     0.03200
C692        C  0.21156928  0.25545048  0.02466401    -0.11100
C693        C  0.20909499  0.27108598  0.05848901    -0.01100
C694        C  0.17781178  0.28353290  0.07009772    -0.06300
H695        H  0.13091630  0.24913138  0.00457069     0.06200
H696        H  0.23123930  0.28101426  0.07146623     0.09600
Br697      Br  0.07329041  0.30591927  0.03579932    -0.06000
Br698      Br  0.20655235  0.39005451  0.47501697    -0.02900
Br699      Br  0.19307651  0.21353111  0.96731774    -0.00100
Br700      Br  0.17774134  0.31859503  0.10758716    -0.04400
C701        C  0.06781500  0.46788453  0.54285639    -0.11800
C702        C  0.04979809  0.43531979  0.54134117     0.03600
C703        C  0.05760700  0.40861320  0.56586819    -0.12400
C704        C  0.07410964  0.41866601  0.59672738     0.18500
C705        C  0.07634062  0.45585587  0.60464856    -0.09400
C706        C  0.07268854  0.48083627  0.57739646    -0.02400
H707        H  0.05164764  0.38081391  0.56037484     0.05000
C708        C  0.09148198  0.39216041  0.61890519     0.20500
H709        H  0.08183554  0.00830111  0.57813878     0.10200
C710        C  0.12471797  0.39969415  0.62762556    -0.15800
C711        C  0.13632688  0.39117249  0.66128115     0.03200
C712        C  0.11432083  0.37460472  0.68539500    -0.11100
C713        C  0.08576501  0.35753565  0.67246115    -0.01100
C714        C  0.07390488  0.36665560  0.63900568    -0.06300
H715        H  0.13935333  0.41757801  0.61101352     0.06200
H716        H  0.06974807  0.34253277  0.69037109     0.09600
Br717      Br  0.08517491  0.47335731  0.65108333    -0.06000
Br718      Br  0.02493208  0.42214845  0.50132045    -0.02900
Br719      Br  0.17736666  0.41259378  0.67633637    -0.00100
Br720      Br  0.03318635  0.34564745  0.62363169    -0.04400
C721        C  0.18662206  0.97961618  0.55039433    -0.11800
C722        C  0.19357290  0.01541230  0.55864760     0.03600
C723        C  0.22410126  0.02432073  0.57410530    -0.12400
C724        C  0.24795752  0.99758060  0.58234271     0.18500
C725        C  0.23843124  0.96110014  0.57912209    -0.09400
C726        C  0.20823249  0.95254742  0.56285315    -0.02400
H727        H  0.22982450  0.05239037  0.57802866     0.05000
C728        C  0.28267610  0.00826796  0.59213882     0.20500
H729        H  0.20169856  0.42472805  0.56051614     0.10200
C730        C  0.29712053  0.99557622  0.62357576    -0.15800
C731        C  0.32819922  0.00817003  0.63538207     0.03200
C732        C  0.34629040  0.03392984  0.61504529    -0.11100
C733        C  0.33336902  0.04242277  0.58130617    -0.01100
C734        C  0.30152930  0.03201432  0.57090588    -0.06300
H735        H  0.28302478  0.97764010  0.64056645     0.06200
H736        H  0.34617292  0.06101039  0.56407915     0.09600
Br737      Br  0.26643517  0.92123041  0.59236334    -0.06000
Br738      Br  0.16262900  0.05234225  0.54695190    -0.02900
Br739      Br  0.34180187  0.98971259  0.68044059    -0.00100
Br740      Br  0.28426451  0.05628234  0.53001266    -0.04400
C741        C  0.26744651  0.51458680  0.95236163    -0.11800
C742        C  0.28628634  0.49000942  0.97244272     0.03600
C743        C  0.32083521  0.49295774  0.97419583    -0.12400
C744        C  0.33781390  0.51675627  0.95180611     0.18500
C745        C  0.31906865  0.54344027  0.93360466    -0.09400
C746        C  0.28406654  0.54272872  0.93509424    -0.02400
H747        H  0.33476306  0.47231760  0.98816049     0.05000
C748        C  0.37047438  0.50373038  0.93789464     0.20500
H749        H  0.26995951  0.56126160  0.91876483     0.10200
C750        C  0.37129851  0.46888557  0.92251011    -0.15800
C751        C  0.39606332  0.45973041  0.89778055     0.03200
C752        C  0.41911742  0.98097777  0.88842926    -0.11100
C753        C  0.42574469  0.00809300  0.91343410    -0.01100
C754        C  0.39982086  0.01966157  0.93578858    -0.06300
H755        H  0.35048480  0.45079464  0.92591923     0.06200
H756        H  0.44645152  0.02623087  0.90905995     0.09600
Br757      Br  0.33994792  0.07284072  0.90170602    -0.06000
Br758      Br  0.26766947  0.44787110  0.99232885    -0.02900
Br759      Br  0.39205656  0.41714665  0.86947683    -0.00100
Br760      Br  0.40428132  0.06657870  0.95616108    -0.04400
C761        C  0.29057527  0.19192745  0.77239827    -0.11800
C762        C  0.32308481  0.17663709  0.77558726     0.03600
C763        C  0.32680139  0.14230961  0.78942493    -0.12400
C764        C  0.29921454  0.12066120  0.79599386     0.18500
C765        C  0.26787480  0.13758436  0.80033730    -0.09400
C766        C  0.26388189  0.17339084  0.78866012    -0.02400
H767        H  0.35139752  0.13066364  0.79112905     0.05000
C768        C  0.30484811  0.08117462  0.79244791     0.20500
H769        H  0.23936083  0.18502583  0.78881961     0.10200
C770        C  0.29903643  0.05777436  0.82108860    -0.15800
C771        C  0.31668687  0.02499504  0.82266002     0.03200
C772        C  0.34214934  0.01812731  0.79759563    -0.11100
C773        C  0.33966798  0.03478061  0.76476809    -0.01100
C774        C  0.32299261  0.06753851  0.76250578    -0.06300
H775        H  0.28356057  0.06601685  0.84340765     0.06200
H776        H  0.35774202  0.02800925  0.74422152     0.09600
Br777      Br  0.23001276  0.11314166  0.82011946    -0.06000
Br778      Br  0.36415092  0.19815576  0.75959900    -0.02900
Br779      Br  0.30829989  0.99175155  0.86024388    -0.00100
Br780      Br  0.33131972  0.09390324  0.71955740    -0.04400
C781        C  0.44334255  0.08280798  0.82108109    -0.11800
C782        C  0.43283854  0.11341232  0.80175298     0.03600
C783        C  0.43849940  0.14788556  0.81530432    -0.12400
C784        C  0.45615259  0.15195327  0.84671574     0.18500
C785        C  0.47296046  0.12220227  0.86111185    -0.09400
C786        C  0.46507921  0.08809571  0.84957417    -0.02400
H787        H  0.42619971  0.17096173  0.80354487     0.05000
C788        C  0.44565268  0.17986839  0.87174282     0.20500
H789        H  0.47434515  0.06574271  0.86506331     0.10200
C790        C  0.42629639  0.16794793  0.90038561    -0.15800
C791        C  0.42636583  0.18650362  0.93217387     0.03200
C792        C  0.44857063  0.21553529  0.93618436    -0.11100
C793        C  0.46266325  0.23148034  0.90574529    -0.01100
C794        C  0.46049774  0.21384614  0.87294869    -0.06300
H795        H  0.41346424  0.14232133  0.89889759     0.06200
H796        H  0.97837414  0.25540642  0.90823850     0.09600
Br797      Br  0.49906227  0.12542302  0.90322239    -0.06000
Br798      Br  0.40888393  0.11093576  0.75875674    -0.02900
Br799      Br  0.40162280  0.17000213  0.47233990    -0.00100
Br800      Br  0.47977813  0.23469289  0.83135877    -0.04400
C801        C  0.35476394  0.30949913  0.93232379    -0.11800
C802        C  0.34311759  0.33050230  0.90414238     0.03600
C803        C  0.35615333  0.32199408  0.87094139    -0.12400
C804        C  0.37148535  0.28828883  0.86539766     0.18500
C805        C  0.36751029  0.26166452  0.89136898    -0.09400
C806        C  0.36045919  0.27275087  0.92609877    -0.02400
H807        H  0.35560543  0.34183397  0.85014830     0.05000
C808        C  0.38601583  0.28133162  0.83040079     0.20500
H809        H  0.36331068  0.25408855  0.94791838     0.10200
C810        C  0.41622109  0.29824605  0.82229884    -0.15800
C811        C  0.41935401  0.31684594  0.79023847     0.03200
C812        C  0.39129043  0.31872040  0.76775157    -0.11100
C813        C  0.36999046  0.28870445  0.76939158    -0.01100
C814        C  0.36380118  0.27419974  0.80314999    -0.06300
H815        H  0.43438573  0.30254898  0.84294359     0.06200
H816        H  0.35037726  0.28681039  0.75019617     0.09600
Br817      Br  0.36495186  0.21200856  0.87890245    -0.06000
Br818      Br  0.32617488  0.37842896  0.91281365    -0.02900
Br819      Br  0.45689260  0.34787966  0.78529296    -0.00100
Br820      Br  0.31978734  0.25981070  0.81676681    -0.04400
C821        C  0.08455552  0.32357259  0.93238894    -0.11800
C822        C  0.05089577  0.32015376  0.94340609     0.03600
C823        C  0.02944145  0.34949672  0.94013018    -0.12400
C824        C  0.03951057  0.38075844  0.92194999     0.18500
C825        C  0.07340867  0.38663264  0.91633101    -0.09400
C826        C  0.09589347  0.35874532  0.92342065    -0.02400
H827        H  0.00340118  0.34576123  0.94697158     0.05000
C828        C  0.01348772  0.40141925  0.90310326     0.20500
H829        H  0.12214929  0.36378143  0.91853104     0.10200
C830        C  0.99650227  0.42716450  0.92364845    -0.15800
C831        C  0.96517211  0.41804712  0.93747500     0.03200
C832        C  0.44986480  0.38732441  0.92542034    -0.11100
C833        C  0.46192013  0.37095224  0.89395799    -0.01100
C834        C  0.99398958  0.37927246  0.88131535    -0.06300
H835        H  0.01001270  0.44952538  0.93493711     0.06200
H836        H  0.44936199  0.34787998  0.88283047     0.09600
Br837      Br  0.08921306  0.43057419  0.89592195    -0.06000
Br838      Br  0.02952287  0.27638258  0.95735238    -0.02900
Br839      Br  0.94594974  0.44698721  0.97456837    -0.00100
Br840      Br  0.01617859  0.34723501  0.84848245    -0.04400
C841        C  0.40347271  0.34476272  0.54025856    -0.11800
C842        C  0.43564989  0.34564991  0.55435501     0.03600
C843        C  0.94682137  0.37811226  0.56729391    -0.12400
C844        C  0.42450498  0.40702634  0.57410824     0.18500
C845        C  0.38995443  0.39963694  0.57233703    -0.09400
C846        C  0.37948943  0.36875762  0.55412323    -0.02400
H847        H  0.97350149  0.38163375  0.56731807     0.05000
C848        C  0.43802864  0.44447358  0.57349892     0.20500
H849        H  0.35358726  0.36648634  0.54641628     0.10200
C850        C  0.92086587  0.47298019  0.55593254    -0.15800
C851        C  0.93600487  0.50677270  0.55163706     0.03200
C852        C  0.96999246  0.51099980  0.55881609    -0.11100
C853        C  0.98710323  0.48189691  0.57349035    -0.01100
C854        C  0.97083577  0.45107256  0.58398869    -0.06300
H855        H  0.89576462  0.46961482  0.54630190     0.06200
H856        H  0.01156490  0.48612162  0.58381127     0.09600
Br857      Br  0.35668544  0.43083519  0.59269465    -0.06000
Br858      Br  0.96864770  0.31009610  0.54116422    -0.02900
Br859      Br  0.90968985  0.04566384  0.53963995    -0.00100
Br860      Br  0.49367506  0.42384444  0.61930959    -0.04400
C861        C  0.13638229  0.18307195  0.64949534    -0.11800
C862        C  0.10676804  0.16264391  0.64986611     0.03600
C863        C  0.07600655  0.18038815  0.64812352    -0.12400
C864        C  0.07506653  0.21761578  0.64311004     0.18500
C865        C  0.10445010  0.23557261  0.63330895    -0.09400
C866        C  0.13500968  0.21762653  0.63475797    -0.02400
H867        H  0.05314797  0.16569047  0.65308777     0.05000
C868        C  0.04478573  0.23794322  0.65283625     0.20500
H869        H  0.15770540  0.23319386  0.63197687     0.10200
C870        C  0.54032433  0.24907190  0.68809288    -0.15800
C871        C  0.51310508  0.27072368  0.69819255     0.03200
C872        C  0.49026805  0.28232494  0.67236826    -0.11100
C873        C  0.49446321  0.27004715  0.63704740    -0.01100
C874        C  0.02171209  0.24829082  0.62719532    -0.06300
H875        H  0.55813389  0.24067858  0.70791790     0.06200
H876        H  0.47723743  0.27854713  0.61667150     0.09600
Br877      Br  0.10485310  0.28577448  0.62461677    -0.06000
Br878      Br  0.10640619  0.11176143  0.65610168    -0.02900
Br879      Br  0.50755213  0.28150487  0.74747952    -0.00100
Br880      Br  0.02754526  0.23473813  0.57845340    -0.04400
C881        C  0.04905016  0.14944535  0.80298984    -0.11800
C882        C  0.06218312  0.15553317  0.76889397     0.03600
C883        C  0.07866722  0.18782733  0.76185597    -0.12400
C884        C  0.08215843  0.21389886  0.78872624     0.18500
C885        C  0.06329545  0.21073479  0.82006795    -0.09400
C886        C  0.04653631  0.17860752  0.82692631    -0.02400
H887        H  0.09289260  0.19017359  0.73733741     0.05000
C888        C  0.11348551  0.23438061  0.78842489     0.20500
H889        H  0.03565272  0.17465847  0.85303699     0.10200
C890        C  0.11909366  0.25997690  0.76161798    -0.15800
C891        C  0.15134204  0.26314268  0.74707472     0.03200
C892        C  0.17547040  0.23735202  0.75701198    -0.11100
C893        C  0.17333243  0.22625041  0.79245846    -0.01100
C894        C  0.14147486  0.21937777  0.80589666    -0.06300
H895        H  0.09827805  0.27336451  0.74895557     0.06200
H896        H  0.19369890  0.21150019  0.80402011     0.09600
Br897      Br  0.06529430  0.24647976  0.85671959    -0.06000
Br898      Br  0.06421599  0.11810027  0.73401337    -0.02900
Br899      Br  0.15822207  0.29253975  0.70608409    -0.00100
Br900      Br  0.13803647  0.17950616  0.83813555    -0.04400
C901        C  0.19535270  0.10889734  0.73572040    -0.11800
C902        C  0.22983188  0.10226843  0.73270604     0.03600
C903        C  0.24087866  0.06638317  0.73438299    -0.12400
C904        C  0.21839901  0.04122106  0.72044663     0.18500
C905        C  0.18692739  0.04458193  0.73745207    -0.09400
C906        C  0.17389599  0.07964570  0.74221688    -0.02400
H907        H  0.26705112  0.06128399  0.73049450     0.05000
C908        C  0.21914948  0.04338353  0.68000309     0.20500
H909        H  0.14777031  0.08386718  0.74877499     0.10200
C910        C  0.24952203  0.05355200  0.66368882    -0.15800
C911        C  0.25073705  0.08387933  0.64160526     0.03200
C912        C  0.22107714  0.10103024  0.63049809    -0.11100
C913        C  0.19092436  0.08376395  0.63939531    -0.01100
C914        C  0.19015995  0.05398768  0.66187562    -0.06300
H915        H  0.27280072  0.04331463  0.67409020     0.06200
H916        H  0.16754657  0.09311457  0.62908995     0.09600
Br917      Br  0.16269757  0.00314818  0.75304193    -0.06000
Br918      Br  0.25851540  0.13794441  0.71199277    -0.02900
Br919      Br  0.29364728  0.10225760  0.63093697    -0.00100
Br920      Br  0.14934146  0.02844540  0.66614680    -0.04400
C921        C  0.24885458  0.68226590  0.07310932     0.03300
C922        C  0.24251394  0.66092092  0.10322065    -0.12900
C923        C  0.21938203  0.63256203  0.10259222     0.00800
C924        C  0.19614904  0.63207913  0.07538458    -0.11400
C925        C  0.19949957  0.65168888  0.04401765     0.03200
C926        C  0.22809578  0.67550553  0.04210884    -0.10800
H927        H  0.25771969  0.66476132  0.12649189     0.08800
H928        H  0.17521974  0.61463225  0.07787362     0.06400
H929        H  0.23737993  0.68585999  0.51766917     0.06200
C930        C  0.06383154  0.57838898  0.36832142     0.03300
C931        C  0.06573867  0.61002208  0.34905824    -0.12900
C932        C  0.04572698  0.61645479  0.31991091     0.00800
C933        C  0.02607583  0.58877656  0.30628465    -0.11400
C934        C  0.52433487  0.55368500  0.32181624     0.03200
C935        C  0.04272016  0.54938140  0.35473783    -0.10800
H936        H  0.08120792  0.63172393  0.35887888     0.08800
H937        H  0.51105623  0.59554626  0.28356427     0.06400
H938        H  0.54023440  0.02337688  0.37006552     0.06200
C939        C  0.44372969  0.87308949  0.18179821     0.03300
C940        C  0.41530848  0.86516591  0.15876508    -0.12900
C941        C  0.40745520  0.82823908  0.14894669     0.00800
C942        C  0.42779431  0.80147990  0.16398233    -0.11400
C943        C  0.45877646  0.80913028  0.17838141     0.03200
C944        C  0.46570519  0.84441807  0.18942153    -0.10800
H945        H  0.40008478  0.88703079  0.14882866     0.08800
H946        H  0.42278318  0.77331666  0.15857921     0.06400
H947        H  0.48942410  0.85009997  0.20180358     0.06200
C948        C  0.15739390  0.68190039  0.17410832     0.80300
N949        N  0.16256715  0.71185554  0.19407831    -0.78000
C950        C  0.17830861  0.71041457  0.22574262     0.82800
N951        N  0.18966719  0.67788733  0.23707839    -0.77900
C952        C  0.18446239  0.64774033  0.21750036     0.82900
N953        N  0.16797416  0.64965444  0.18632458    -0.79600
O954        O  0.15444160  0.88525081  0.33912391    -0.85200
O955        O  0.17721124  0.81377339  0.34876286    -0.82300
C956        C  0.18576427  0.78748268  0.36721231     0.98200
O957        O  0.21709825  0.78545084  0.37248205    -0.82300
O958        O  0.23681032  0.80618823  0.30289129    -0.85000
C959        C  0.24905585  0.81971631  0.27509822     1.02800
O960        O  0.25019402  0.85474503  0.27404264    -0.77700
O961        O  0.18543859  0.88637253  0.29135980    -0.77900
C962        C  0.15725812  0.89156532  0.30601880     1.02700
O963        O  0.19491376  0.90600443  0.39583274    -0.85200
O964        O  0.21516918  0.83606433  0.41536855    -0.82300
C965        C  0.24660823  0.83082902  0.42265237     0.98300
O966        O  0.26758975  0.83526698  0.39798704    -0.82300
O967        O  0.29118171  0.85018740  0.32846980    -0.84900
C968        C  0.29877434  0.88307074  0.32125017     1.02700
O969        O  0.27675098  0.90690159  0.32639476    -0.77700
O970        O  0.21180047  0.93452509  0.34705084    -0.77900
C971        C  0.20009425  0.93502120  0.37951230     1.02700
Cr972      Cr  0.18789985  0.85966673  0.37304273     1.93700
Cr973      Cr  0.25148977  0.82235237  0.34983416     1.93200
Cr974      Cr  0.23022099  0.89323472  0.31256404     1.39100
O975        O  0.22442942  0.86061176  0.34665580    -1.23000
C976        C  0.00766634  0.54636342  0.12244102     0.03300
C977        C  0.97972728  0.05414778  0.10186813    -0.12900
C978        C  0.98397778  0.04847477  0.06570520     0.00800
C979        C  0.01503562  0.55848101  0.04998203    -0.11400
C980        C  0.04211279  0.56859061  0.07162971     0.03200
C981        C  0.03959430  0.55808330  0.10857081    -0.10800
H982        H  0.95487155  0.04962483  0.11241718     0.08800
H983        H  0.01876771  0.55449022  0.02174914     0.06400
H984        H  0.06160618  0.55702652  0.12490453     0.06200
C985        C  0.12894793  0.72926615  0.43169087     0.03300
C986        C  0.11026222  0.75857870  0.44524815    -0.12900
C987        C  0.11164273  0.79289768  0.42949762     0.00800
C988        C  0.13536489  0.79824274  0.40268187    -0.11400
C989        C  0.15895187  0.77241267  0.39203993     0.03200
C990        C  0.15435346  0.73667224  0.40511590    -0.10800
H991        H  0.09475720  0.75398553  0.46814544     0.08800
H992        H  0.13540623  0.82365538  0.38904789     0.06400
H993        H  0.17100788  0.71538091  0.39613988     0.06200
C994        C  0.33112221  0.89020397  0.30008666     0.03300
C995        C  0.35007184  0.92310805  0.29481478    -0.12900
C996        C  0.38070330  0.92251153  0.27363243     0.00800
C997        C  0.39053267  0.88910359  0.25936871    -0.11400
C998        C  0.37390384  0.85736276  0.26595493     0.03200
C999        C  0.34277090  0.85943607  0.28248846    -0.10800
H1000       H  0.34135442  0.94783308  0.30676057     0.08800
H1001       H  0.41252978  0.88664547  0.24372701     0.06400
H1002       H  0.32793631  0.83543801  0.28368841     0.06200
C1003       C  0.40742370  0.83738697  0.00055577     0.80300
N1004       N  0.42888682  0.85705205  0.98036171    -0.78000
C1005       C  0.42742090  0.85280184  0.44591321     0.82800
N1006       N  0.40676633  0.82942461  0.43054176    -0.77900
C1007       C  0.38344651  0.81149710  0.44984688     0.82900
N1008       N  0.38194832  0.81543569  0.48569517    -0.79600
O1009       O  0.17292387  0.64058644  0.48472005    -0.85200
O1010       O  0.15695734  0.57132922  0.46452283    -0.82300
C1011       C  0.14459390  0.04055353  0.45810539     0.98200
O1012       O  0.11245526  0.03757875  0.46160175    -0.82300
O1013       O  0.08656615  0.56580066  0.02871281    -0.85000
C1014       C  0.07187139  0.58473739  0.05194621     1.02800
O1015       O  0.07450646  0.61896192  0.04904947    -0.77700
O1016       O  0.14187119  0.64046706  0.03293733    -0.77900
C1017       C  0.16998340  0.64541572  0.01819945     1.02700
O1018       O  0.12386695  0.66437374  0.42955562    -0.85200
O1019       O  0.11023200  0.59252636  0.40855355    -0.82300
C1020       C  0.07948661  0.58264999  0.40486805     0.98300
O1021       O  0.06039575  0.58287163  0.43151846    -0.82300
O1022       O  0.03370651  0.61142421  0.99418532    -0.84900
C1023       C  0.03021983  0.64632974  0.99658133     1.02700
O1024       O  0.05564410  0.66547800  0.99289216    -0.77700
O1025       O  0.11983618  0.68902703  0.48230257    -0.77900
C1026       C  0.12349842  0.69233677  0.44854803     1.02700
Cr1027     Cr  0.13790547  0.61697101  0.44932421     1.93700
Cr1028     Cr  0.07592654  0.57693581  0.48055465     1.93200
Cr1029     Cr  0.09857365  0.65055051  0.01085933     1.39100
O1030       O  0.10428802  0.61442988  0.48066097    -1.23000
C1031       C  0.99758118  0.66828826  0.99907540     0.03300
C1032       C  0.97682970  0.67634106  0.03018762    -0.12900
C1033       C  0.95314775  0.70651580  0.02998642     0.00800
C1034       C  0.45148680  0.72711612  0.99887024    -0.11400
C1035       C  0.96971397  0.71616713  0.47320592     0.03200
C1036       C  0.99465368  0.68995681  0.47422151    -0.10800
H1037       H  0.97920604  0.65999705  0.05377563     0.08800
H1038       H  0.43256934  0.74804905  0.99646240     0.05200
H1039       H  0.00971152  0.68583399  0.45056184     0.06200
C1040       C  0.30450192  0.76663375  0.20192532     0.03300
C1041       C  0.30003113  0.73252700  0.21591018    -0.12900
C1042       C  0.28148584  0.72681840  0.24648549     0.00800
C1043       C  0.26049194  0.75464691  0.25921929    -0.11400
C1044       C  0.26436436  0.79136785  0.24844065     0.03200
C1045       C  0.28662287  0.79694592  0.21830541    -0.10800
H1046       H  0.31226692  0.70962415  0.20320290     0.08800
H1047       H  0.24507128  0.74820052  0.28200036     0.06400
H1048       H  0.29040821  0.82389854  0.20824343     0.06200
C1049       C  0.19836139  0.96858420  0.40256332     0.03300
C1050       C  0.16855798  0.98574569  0.41764801    -0.12900
C1051       C  0.17090000  0.01175272  0.44638404     0.00800
C1052       C  0.20348109  0.01731350  0.46019353    -0.11400
C1053       C  0.23198765  0.00063310  0.44558362     0.03200
C1054       C  0.22911397  0.97721648  0.41697619    -0.10800
H1055       H  0.14442404  0.97983699  0.40652798     0.08800
H1056       H  0.20725096  0.03658119  0.48143426     0.06400
H1057       H  0.25153498  0.96412414  0.40666928     0.06200
C1058       C  0.42681070  0.55139178  0.32071076     0.80300
N1059       N  0.43606966  0.52592183  0.34435976    -0.78000
C1060       C  0.41561559  0.49860199  0.35340346     0.82800
N1061       N  0.38558193  0.49579300  0.33698621    -0.77900
C1062       C  0.37692256  0.51942973  0.31136357     0.82900
N1063       N  0.39717089  0.54785460  0.30436933    -0.79600
O1064       O  0.42426909  0.71747344  0.08860950    -0.85200
O1065       O  0.39800793  0.78639641  0.10256395    -0.82300
C1066       C  0.38521136  0.81224817  0.11921539     0.98200
O1067       O  0.35328036  0.81408623  0.11676964    -0.82300
O1068       O  0.33344193  0.78950267  0.04291204    -0.85000
C1069       C  0.32697890  0.76837386  0.52058554     1.02800
O1070       O  0.33018289  0.73485856  0.02202027    -0.77700
O1071       O  0.39580177  0.71834275  0.03956737    -0.77900
C1072       C  0.42341366  0.71362752  0.05478116     1.02700
O1073       O  0.38123934  0.68978066  0.14394935    -0.85200
O1074       O  0.35541466  0.75962157  0.16424093    -0.82300
C1075       C  0.32342260  0.76543796  0.16703613     0.98300
O1076       O  0.30557957  0.76353511  0.14005826    -0.82300
O1077       O  0.28378120  0.73850628  0.07591166    -0.84900
C1078       C  0.28190727  0.70360046  0.07441707     1.02700
O1079       O  0.30865501  0.68530680  0.07590275    -0.77700
O1080       O  0.37542501  0.66614527  0.09082376    -0.77900
C1081       C  0.38273948  0.66251076  0.12369135     1.02700
Cr1082     Cr  0.38714083  0.73900769  0.12299346     1.93700
Cr1083     Cr  0.32215056  0.77370325  0.09284539     1.93200
Cr1084     Cr  0.35271693  0.70392603  0.05979614     1.39100
O1085       O  0.35307456  0.73770892  0.09300166    -1.23000
C1086       C  0.39061868  0.62469212  0.13684462     0.03300
C1087       C  0.41309880  0.61397740  0.16456775    -0.12900
C1088       C  0.41731337  0.57636153  0.17297306     0.00800
C1089       C  0.39827600  0.55096542  0.15353463    -0.11400
C1090       C  0.37487708  0.56126078  0.12804502     0.03200
C1091       C  0.37347125  0.59771037  0.11886060    -0.10800
H1092       H  0.42677611  0.63419518  0.17910527     0.08800
H1093       H  0.40203623  0.52253774  0.15822009     0.06400
H1094       H  0.35670519  0.60619013  0.09831122     0.06200
C1095       C  0.08133417  0.93870744  0.25517759     0.03300
C1096       C  0.08514007  0.91787813  0.22470227    -0.12900
C1097       C  0.10807265  0.88973736  0.22176936     0.00800
C1098       C  0.12911974  0.88148358  0.24954092    -0.11400
C1099       C  0.12811014  0.90104464  0.28149746     0.03200
C1100       C  0.10294042  0.92967131  0.28494590    -0.10800
H1101       H  0.06827909  0.92235072  0.20277383     0.08800
H1102       H  0.14733968  0.86009048  0.24564589     0.06400
H1103       H  0.10043151  0.94441188  0.30967375     0.06200
C1104       C  0.25732879  0.81216224  0.45740225     0.03300
C1105       C  0.23199011  0.79390519  0.47537614    -0.12900
C1106       C  0.23975948  0.76892108  0.50174412     0.00800
C1107       C  0.27132960  0.75572417  0.50377415    -0.11400
C1108       C  0.29780376  0.77804752  0.49638315     0.03200
C1109       C  0.29070786  0.80787506  0.47254221    -0.10800
H1110       H  0.20608643  0.79840831  0.46860997     0.08800
H1111       H  0.27478673  0.73046209  0.51667618     0.06400
H1112       H  0.30982050  0.82699699  0.46695477     0.06200
C1113       C  0.10029846  0.97023902  0.02180128     0.80300
N1114       N  0.13006210  0.48322797  0.03559787    -0.78000
C1115       C  0.16071687  0.46937972  0.02828915     0.82800
N1116       N  0.16121023  0.94142016  0.00921197    -0.77900
C1117       C  0.13418249  0.92575796  0.99470149     0.82900
N1118       N  0.10414881  0.94174092  0.99939342    -0.79600
O1119       O  0.49906343  0.99074566  0.30361255    -0.85200
O1120       O  0.42945525  0.96176885  0.28266068    -0.82300
C1121       C  0.40484532  0.95291306  0.26320974     0.98200
O1122       O  0.40656382  0.96082970  0.23047574    -0.82300
O1123       O  0.42599190  0.53358699  0.21847220    -0.85000
C1124       C  0.43836986  0.55988042  0.20253417     1.02800
O1125       O  0.47002633  0.56324857  0.20517763    -0.77700
O1126       O  0.48738724  0.53988385  0.27442164    -0.77900
C1127       C  0.50198884  0.52664899  0.30053915     1.02700
O1128       O  0.52281926  0.93978632  0.25294806    -0.85200
O1129       O  0.46164218  0.91350738  0.23043815    -0.82300
C1130       C  0.45262178  0.91025704  0.19753146     0.98300
O1131       O  0.45053859  0.93816598  0.17849557    -0.82300
O1132       O  0.46987774  0.51171913  0.15960752    -0.84900
C1133       C  0.50007831  0.52296604  0.15489822     1.02700
O1134       O  0.52120746  0.51734471  0.17896895    -0.77700
O1135       O  0.04455668  0.99373897  0.24829879    -0.77900
C1136       C  0.54809772  0.95962912  0.25445943     1.02700
Cr1137     Cr  0.47738317  0.95465442  0.26478793     1.93700
Cr1138     Cr  0.44105141  0.98618653  0.19925078     1.93200
Cr1139     Cr  0.50377236  0.52551902  0.22779548     1.39100
O1140       O  0.47522076  0.98676588  0.22931252    -1.23000
C1141       C  0.13528409  0.88603658  0.99299075    -0.11800
C1142       C  0.16657606  0.86926500  0.99443753     0.03600
C1143       C  0.17031753  0.83844834  0.01423577    -0.12400
C1144       C  0.14744254  0.81810718  0.53292340     0.18500
C1145       C  0.11486852  0.82961749  0.52520770    -0.09400
C1146       C  0.11009271  0.86235462  0.50752568    -0.02400
H1147       H  0.19541589  0.83009526  0.01992119     0.05000
C1148       C  0.15562719  0.78357864  0.55066757     0.20500
H1149       H  0.08496240  0.87258722  0.50466673     0.10200
C1150       C  0.15547051  0.75417305  0.52685038    -0.15800
C1151       C  0.18638689  0.74182820  0.51381052     0.03200
C1152       C  0.21490657  0.75677829  0.52742186    -0.11100
C1153       C  0.21390856  0.77305569  0.56100499    -0.01100
C1154       C  0.18313025  0.78548267  0.57401892    -0.06300
H1155       H  0.13328628  0.74841822  0.51211684     0.06200
H1156       H  0.23657441  0.78339436  0.57260281     0.09600
Br1157     Br  0.07651164  0.80323728  0.53969965    -0.06000
Br1158     Br  0.20617173  0.89012717  0.97503075    -0.02900
Br1159     Br  0.19356575  0.71435940  0.47152766    -0.00100
Br1160     Br  0.18479303  0.82132341  0.61082198    -0.04400
C1161       C  0.06961019  0.96983085  0.04415740    -0.11800
C1162       C  0.05094653  0.93776267  0.04180983     0.03600
C1163       C  0.05696744  0.91077441  0.06667728    -0.12400
C1164       C  0.07261877  0.92016333  0.09829027     0.18500
C1165       C  0.07618548  0.95722341  0.10622684    -0.09400
C1166       C  0.07462265  0.98232333  0.07884638    -0.02400
H1167       H  0.05025026  0.88321080  0.06097555     0.05000
C1168       C  0.08845607  0.89298442  0.12108778     0.20500
H1169       H  0.08574448  0.50836532  0.08213656     0.10200
C1170       C  0.12201495  0.89860841  0.12986747    -0.15800
C1171       C  0.13364761  0.88800040  0.16293593     0.03200
C1172       C  0.11106711  0.87231881  0.18698888    -0.11100
C1173       C  0.08160553  0.85716438  0.17385656    -0.01100
C1174       C  0.06984103  0.86787852  0.14074117    -0.06300
H1175       H  0.13745804  0.91595835  0.11353446     0.06200
H1176       H  0.06505287  0.84257710  0.19154965     0.09600
Br1177     Br  0.08430628  0.97427871  0.15300629    -0.06000
Br1178     Br  0.02674855  0.92616578  0.00066556    -0.02900
Br1179     Br  0.17646552  0.90512470  0.17767612    -0.00100
Br1180     Br  0.02831339  0.84884871  0.12499945    -0.04400
C1181       C  0.19022906  0.47946324  0.04924044    -0.11800
C1182       C  0.19746184  0.51529792  0.05716443     0.03600
C1183       C  0.22835252  0.52414642  0.07156936    -0.12400
C1184       C  0.25254869  0.49748950  0.07859593     0.18500
C1185       C  0.24341431  0.46097301  0.07497257    -0.09400
C1186       C  0.21253999  0.45235360  0.06022521    -0.02400
H1187       H  0.23401625  0.55220796  0.07559183     0.05000
C1188       C  0.28705974  0.50843094  0.08824858     0.20500
H1189       H  0.20272027  0.92542873  0.05940722     0.10200
C1190       C  0.30126946  0.49607843  0.11989603    -0.15800
C1191       C  0.33148532  0.51003217  0.13250288     0.03200
C1192       C  0.34933161  0.53599937  0.11228183    -0.11100
C1193       C  0.33676342  0.54416923  0.07832380    -0.01100
C1194       C  0.30537220  0.53300436  0.06746187    -0.06300
H1195       H  0.28729206  0.47777389  0.13662586     0.06200
H1196       H  0.34901594  0.56357553  0.06156094     0.09600
Br1197     Br  0.27299445  0.42148146  0.08522575    -0.06000
Br1198     Br  0.16672067  0.55273525  0.04609983    -0.02900
Br1199     Br  0.34334978  0.49453620  0.17914775    -0.00100
Br1200     Br  0.28741284  0.55845725  0.02755340    -0.04400
C1201       C  0.26625829  0.00993515  0.45651926    -0.11800
C1202       C  0.28593347  0.98562278  0.47609503     0.03600
C1203       C  0.32056381  0.98843871  0.47592102    -0.12400
C1204       C  0.33654788  0.01251267  0.45302306     0.18500
C1205       C  0.31708048  0.03933862  0.43601500    -0.09400
C1206       C  0.28215524  0.03823836  0.43869491    -0.02400
H1207       H  0.33514401  0.96784956  0.48919885     0.05000
C1208       C  0.36900402  0.00021288  0.43801905     0.20500
H1209       H  0.26741907  0.05674764  0.42297002     0.10200
C1210       C  0.36996096  0.96583185  0.42160560    -0.15800
C1211       C  0.39571482  0.95696929  0.39784073     0.03200
C1212       C  0.41833413  0.48451533  0.38972059    -0.11100
C1213       C  0.42406855  0.51160826  0.41506209    -0.01100
C1214       C  0.39772966  0.52226441  0.43732372    -0.06300
H1215       H  0.34902071  0.94772786  0.42408151     0.06200
H1216       H  0.44436382  0.53036368  0.41108809     0.09600
Br1217     Br  0.33555413  0.57373111  0.40419729    -0.06000
Br1218     Br  0.26818363  0.94444879  0.49875515    -0.02900
Br1219     Br  0.39380818  0.91425733  0.36939644    -0.00100
Br1220     Br  0.40068585  0.56926502  0.45808306    -0.04400
C1221       C  0.28829001  0.69329361  0.26743782    -0.11800
C1222       C  0.32114634  0.67873217  0.27027386     0.03600
C1223       C  0.32565607  0.64481041  0.28464701    -0.12400
C1224       C  0.29859063  0.62257592  0.29166623     0.18500
C1225       C  0.26682574  0.63863819  0.29570208    -0.09400
C1226       C  0.26204911  0.67425965  0.28394800    -0.02400
H1227       H  0.35051627  0.63380564  0.28622017     0.05000
C1228       C  0.30525877  0.58323610  0.28945055     0.20500
H1229       H  0.23726486  0.68539144  0.28440008     0.10200
C1230       C  0.29898338  0.56057313  0.31854373    -0.15800
C1231       C  0.31665766  0.52796572  0.32136059     0.03200
C1232       C  0.34285346  0.52074170  0.29724535    -0.11100
C1233       C  0.34124735  0.53665382  0.26397651    -0.01100
C1234       C  0.32434457  0.56914378  0.26037455    -0.06300
H1235       H  0.28292317  0.56920323  0.34024192     0.06200
H1236       H  0.35999566  0.52961659  0.24422104     0.09600
Br1237     Br  0.22925242  0.61318188  0.31481798    -0.06000
Br1238     Br  0.36175634  0.70026338  0.25278713    -0.02900
Br1239     Br  0.30669339  0.49528880  0.35908778    -0.00100
Br1240     Br  0.33354228  0.59470801  0.21700394    -0.04400
C1241       C  0.44254266  0.58734441  0.32352960    -0.11800
C1242       C  0.43210533  0.61784798  0.30399905     0.03600
C1243       C  0.43680627  0.65246068  0.31789228    -0.12400
C1244       C  0.45401832  0.65681822  0.34962861     0.18500
C1245       C  0.47064255  0.62707439  0.36441470    -0.09400
C1246       C  0.46351970  0.59288606  0.35254787    -0.02400
H1247       H  0.42471117  0.67541121  0.30565112     0.05000
C1248       C  0.44428238  0.68570540  0.37410926     0.20500
H1249       H  0.47298671  0.57056965  0.36796321     0.10200
C1250       C  0.42414073  0.67494878  0.40257263    -0.15800
C1251       C  0.42636225  0.69192220  0.43505836     0.03200
C1252       C  0.45119480  0.71826970  0.43977136    -0.11100
C1253       C  0.46616429  0.73396020  0.40967675    -0.01100
C1254       C  0.46182356  0.71807970  0.37628789    -0.06300
H1255       H  0.40951574  0.65051602  0.40053747     0.06200
H1256       H  0.98347338  0.75595440  0.41260388     0.09600
Br1257     Br  0.49665876  0.63003429  0.40648806    -0.06000
Br1258     Br  0.41084621  0.61462316  0.25937108    -0.02900
Br1259     Br  0.40009497  0.66978740  0.96702069    -0.00100
Br1260     Br  0.48096465  0.73931111  0.33489937    -0.04400
C1261       C  0.35611909  0.79670835  0.42945216    -0.11800
C1262       C  0.34551699  0.82182684  0.40383533     0.03600
C1263       C  0.35740917  0.81644012  0.36953468    -0.12400
C1264       C  0.37142155  0.78305957  0.35993669     0.18500
C1265       C  0.36658383  0.75361582  0.38257187    -0.09400
C1266       C  0.36013439  0.76072115  0.41853709    -0.02400
H1267       H  0.35732484  0.83860687  0.35100179     0.05000
C1268       C  0.38564200  0.77989412  0.32422258     0.20500
H1269       H  0.36196299  0.73931322  0.43787933     0.10200
C1270       C  0.41591696  0.79729777  0.31765914    -0.15800
C1271       C  0.41939741  0.81842606  0.28723270     0.03200
C1272       C  0.39164486  0.82167311  0.26442983    -0.11100
C1273       C  0.37035976  0.79169636  0.26363334    -0.01100
C1274       C  0.36344230  0.77541229  0.29641443    -0.06300
H1275       H  0.43370141  0.80013711  0.33880236     0.06200
H1276       H  0.35090876  0.79149118  0.24410871     0.09600
Br1277     Br  0.36307590  0.70574634  0.36395027    -0.06000
Br1278     Br  0.33370704  0.87054799  0.41699497    -0.02900
Br1279     Br  0.45620559  0.85103839  0.28636121    -0.00100
Br1280     Br  0.31868934  0.76317151  0.30896176    -0.04400
C1281       C  0.08739516  0.82337672  0.43687859    -0.11800
C1282       C  0.05353874  0.81805262  0.44669241     0.03600
C1283       C  0.03050999  0.84557527  0.44123572    -0.12400
C1284       C  0.03927037  0.87680607  0.42232087     0.18500
C1285       C  0.07289625  0.88495189  0.41804562    -0.09400
C1286       C  0.09674662  0.85908035  0.42719182    -0.02400
H1287       H  0.00461193  0.84025953  0.44743461     0.05000
C1288       C  0.01272016  0.89533917  0.40211446     0.20500
H1289       H  0.12270372  0.86635076  0.42385105     0.10200
C1290       C  0.99328413  0.91977340  0.42178854    -0.15800
C1291       C  0.96259118  0.90797072  0.43523318     0.03200
C1292       C  0.45020318  0.87439000  0.42399925    -0.11100
C1293       C  0.46427133  0.85904253  0.39299737    -0.01100
C1294       C  0.99535276  0.87141442  0.38011031    -0.06300
H1295       H  0.00458176  0.94377143  0.43258069     0.06200
H1296       H  0.45442584  0.83439163  0.38217231     0.09600
Br1297     Br  0.08679194  0.92936240  0.39704904    -0.06000
Br1298     Br  0.03379687  0.77394542  0.46240661    -0.02900
Br1299     Br  0.94032622  0.93618214  0.47128269    -0.00100
Br1300     Br  0.02009220  0.84251200  0.34656401    -0.04400
C1301       C  0.40773795  0.84394060  0.03862356    -0.11800
C1302       C  0.43983677  0.84706421  0.05244972     0.03600
C1303       C  0.95069883  0.88035671  0.06500530    -0.12400
C1304       C  0.42615563  0.90890730  0.06920594     0.18500
C1305       C  0.39193618  0.89998819  0.06747542    -0.09400
C1306       C  0.38281581  0.86749971  0.05128849    -0.02400
H1307       H  0.97722051  0.88517695  0.06532228     0.05000
C1308       C  0.43850409  0.94682470  0.06900843     0.20500
H1309       H  0.35704881  0.86354592  0.04375692     0.10200
C1310       C  0.92156044  0.97446942  0.05277436    -0.15800
C1311       C  0.93613271  0.00861153  0.04883097     0.03200
C1312       C  0.97011768  0.01323390  0.05566238    -0.11100
C1313       C  0.98790822  0.98420511  0.06943076    -0.01100
C1314       C  0.97182495  0.95372098  0.08088741    -0.06300
H1315       H  0.89654805  0.97065415  0.04309514     0.06200
H1316       H  0.01250990  0.98871295  0.07933633     0.09600
Br1317     Br  0.35714643  0.93090168  0.08527490    -0.06000
Br1318     Br  0.97522114  0.81258624  0.04029716    -0.02900
Br1319     Br  0.90995084  0.54611869  0.03724056    -0.00100
Br1320     Br  0.49205407  0.92860315  0.11774524    -0.04400
C1321       C  0.13223577  0.68434615  0.14592731    -0.11800
C1322       C  0.10368343  0.66233144  0.14846381     0.03600
C1323       C  0.07201844  0.67844338  0.14814914    -0.12400
C1324       C  0.06911159  0.71554680  0.14251800     0.18500
C1325       C  0.09716894  0.73487363  0.13097649    -0.09400
C1326       C  0.12853572  0.71862610  0.13106380    -0.02400
H1327       H  0.05012805  0.66265594  0.15457343     0.05000
C1328       C  0.03830037  0.73485998  0.15259198     0.20500
H1329       H  0.15031714  0.73535976  0.12697234     0.10200
C1330       C  0.53441955  0.74674469  0.18794025    -0.15800
C1331       C  0.50828268  0.77012739  0.19754996     0.03200
C1332       C  0.48578525  0.78212246  0.17155515    -0.11100
C1333       C  0.48951835  0.76889298  0.13647072    -0.01100
C1334       C  0.01566009  0.74597582  0.12682302    -0.06300
H1335       H  0.55237312  0.73880113  0.20772988     0.06200
H1336       H  0.47281145  0.77792546  0.11582885     0.09600
Br1337     Br  0.09485452  0.78500110  0.12159363    -0.06000
Br1338     Br  0.10646415  0.61158234  0.15649302    -0.02900
Br1339     Br  0.50440702  0.78367821  0.24634290    -0.00100
Br1340     Br  0.02178522  0.73250425  0.07809455    -0.04400
C1341       C  0.04659447  0.65319806  0.30447697    -0.11800
C1342       C  0.05857063  0.65875360  0.26970684     0.03600
C1343       C  0.07398574  0.69130696  0.26126613    -0.12400
C1344       C  0.07852365  0.71784305  0.28746857     0.18500
C1345       C  0.06136809  0.71493371  0.31992322    -0.09400
C1346       C  0.04500746  0.68279751  0.32803297    -0.02400
H1347       H  0.08734850  0.69325716  0.23617083     0.05000
C1348       C  0.11019811  0.73762920  0.28551576     0.20500
H1349       H  0.03524218  0.67922269  0.35469670     0.10200
C1350       C  0.11536273  0.76278904  0.25822211    -0.15800
C1351       C  0.14723257  0.76540447  0.24266432     0.03200
C1352       C  0.17158446  0.73971005  0.25218335    -0.11100
C1353       C  0.16997511  0.72774822  0.28736910    -0.01100
C1354       C  0.13842529  0.72215336  0.30211959    -0.06300
H1355       H  0.09434657  0.77633284  0.24607104     0.06200
H1356       H  0.19030893  0.71216327  0.29803959     0.09600
Br1357     Br  0.06664161  0.75043146  0.35663847    -0.06000
Br1358     Br  0.06172395  0.62055008  0.23553270    -0.02900
Br1359     Br  0.15347898  0.79442847  0.20135972    -0.00100
Br1360     Br  0.13512001  0.68332563  0.33565109    -0.04400
C1361       C  0.19794586  0.61330704  0.22880046    -0.11800
C1362       C  0.23240374  0.60689087  0.22568856     0.03600
C1363       C  0.24378872  0.57127837  0.22879945    -0.12400
C1364       C  0.22137778  0.54496535  0.21694524     0.18500
C1365       C  0.18984536  0.54907061  0.23368109    -0.09400
C1366       C  0.17673124  0.58423710  0.23679187    -0.02400
H1367       H  0.26989639  0.56629490  0.22460101     0.05000
C1368       C  0.22193428  0.54316541  0.17651971     0.20500
H1369       H  0.15061340  0.58861355  0.24329701     0.10200
C1370       C  0.25155703  0.55393798  0.15917349    -0.15800
C1371       C  0.25128405  0.58451375  0.13736052     0.03200
C1372       C  0.22073494  0.60094246  0.12757224    -0.11100
C1373       C  0.19143369  0.58197847  0.13649438    -0.01100
C1374       C  0.19254127  0.55169976  0.15827208    -0.06300
H1375       H  0.27534058  0.54452637  0.16902039     0.06200
H1376       H  0.16741076  0.58999014  0.12672539     0.09600
Br1377     Br  0.16504837  0.50833113  0.25002290    -0.06000
Br1378     Br  0.26108647  0.64227548  0.20459003    -0.02900
Br1379     Br  0.29349481  0.60326703  0.12422822    -0.00100
Br1380     Br  0.15428891  0.52201497  0.16112535    -0.04400
C1381       C  0.25103692  0.68107984  0.57378823     0.03300
C1382       C  0.24422936  0.66053402  0.60434639    -0.12900
C1383       C  0.22104311  0.63227371  0.60398076     0.00800
C1384       C  0.19901806  0.63033691  0.57578172    -0.11400
C1385       C  0.20222068  0.64964136  0.54429199     0.03200
C1386       C  0.23074902  0.67368662  0.54249691    -0.10800
H1387       H  0.25887904  0.66511196  0.62791931     0.08800
H1388       H  0.17871920  0.61224779  0.57803328     0.06400
H1389       H  0.23430814  0.68790326  0.01729816     0.06200
C1390       C  0.06703291  0.57450236  0.86669015     0.03300
C1391       C  0.07092299  0.60462509  0.84569706    -0.12900
C1392       C  0.05039409  0.61115957  0.81714427     0.00800
C1393       C  0.03002048  0.58385291  0.80414640    -0.11400
C1394       C  0.52666304  0.54997483  0.82112461     0.03200
C1395       C  0.04470108  0.54600427  0.85442895    -0.10800
H1396       H  0.08727439  0.62603303  0.85448201     0.08800
H1397       H  0.51494356  0.59091199  0.78130142     0.06400
H1398       H  0.54163350  0.02247861  0.87028352     0.06200
C1399       C  0.44579642  0.87136303  0.68387717     0.03300
C1400       C  0.41701420  0.86279796  0.66178726    -0.12900
C1401       C  0.41001455  0.82580775  0.65192347     0.00800
C1402       C  0.43154882  0.79954506  0.66614416    -0.11400
C1403       C  0.46256664  0.80815814  0.68003487     0.03200
C1404       C  0.46875586  0.84355145  0.69085977    -0.10800
H1405       H  0.40093054  0.88425017  0.65251822     0.08800
H1406       H  0.42725623  0.77124938  0.66062484     0.06400
H1407       H  0.49260973  0.85002101  0.70258890     0.06200
C1408       C  0.15884362  0.68079193  0.67840153     0.80300
N1409       N  0.16502101  0.71081192  0.69804705    -0.78000
C1410       C  0.17896931  0.70886597  0.73065445     0.82800
N1411       N  0.18737485  0.67578084  0.74331190    -0.77900
C1412       C  0.18081323  0.64561477  0.72423992     0.82900
N1413       N  0.16632995  0.64811456  0.69198923    -0.79600
O1414       O  0.15522859  0.88848122  0.83755118    -0.85200
O1415       O  0.17562925  0.81686332  0.84728746    -0.82300
C1416       C  0.18335906  0.78968025  0.86485080     0.98200
O1417       O  0.21447493  0.78666254  0.87087143    -0.82300
O1418       O  0.23472271  0.80725113  0.80196056    -0.85000
C1419       C  0.24882157  0.81987000  0.77485598     1.02800
O1420       O  0.25118575  0.85479397  0.77371504    -0.77700
O1421       O  0.18672975  0.88679263  0.79018341    -0.77900
C1422       C  0.15853869  0.89312822  0.80428922     1.02700
O1423       O  0.19562642  0.90819150  0.89471759    -0.85200
O1424       O  0.21362709  0.83755731  0.91403496    -0.82300
C1425       C  0.24486433  0.83142753  0.92136374     0.98300
O1426       O  0.26609076  0.83489036  0.89686137    -0.82300
O1427       O  0.29050787  0.84944567  0.82817347    -0.84900
C1428       C  0.29898696  0.88215425  0.82125330     1.02700
O1429       O  0.27753739  0.90662819  0.82626542    -0.77700
O1430       O  0.21270013  0.93587855  0.84558288    -0.77900
C1431       C  0.20099564  0.93698360  0.87807457     1.02700
Cr1432     Cr  0.18748653  0.86208156  0.87181240     1.93700
Cr1433     Cr  0.24995354  0.82258790  0.84888403     1.93200
Cr1434     Cr  0.23109175  0.89386550  0.81167975     1.39100
O1435       O  0.22422519  0.86174785  0.84583199    -1.23000
C1436       C  0.00768890  0.54510339  0.62458755     0.03300
C1437       C  0.98004077  0.05288464  0.60337027    -0.12900
C1438       C  0.98447519  0.04581784  0.56750478     0.00800
C1439       C  0.01514374  0.55627506  0.55221435    -0.11400
C1440       C  0.04226255  0.56691425  0.57373799     0.03200
C1441       C  0.03962491  0.55679120  0.61076961    -0.10800
H1442       H  0.95516766  0.04859798  0.61400056     0.08800
H1443       H  0.01878390  0.55221969  0.52396946     0.06400
H1444       H  0.06163059  0.55562675  0.62711565     0.06200
C1445       C  0.12699834  0.72945583  0.92745952     0.03300
C1446       C  0.10669756  0.75814910  0.93965306    -0.12900
C1447       C  0.10730440  0.79206366  0.92308401     0.00800
C1448       C  0.12939401  0.79679469  0.89470302    -0.11400
C1449       C  0.15541312  0.77281582  0.88682548     0.03200
C1450       C  0.15297130  0.73765691  0.90178134    -0.10800
H1451       H  0.09072642  0.75345871  0.96218699     0.08800
H1452       H  0.12715201  0.82110277  0.87922619     0.06400
H1453       H  0.17151479  0.71750751  0.89469444     0.06200
C1454       C  0.33172807  0.88843786  0.80064568     0.03300
C1455       C  0.35087175  0.92108006  0.79512731    -0.12900
C1456       C  0.38195910  0.91991559  0.77481581     0.00800
C1457       C  0.39197175  0.88616553  0.76134215    -0.11400
C1458       C  0.37486548  0.85461097  0.76794776     0.03200
C1459       C  0.34346627  0.85726123  0.78383828    -0.10800
H1460       H  0.34190056  0.94606006  0.80628883     0.08800
H1461       H  0.41417863  0.88345502  0.74609119     0.06400
H1462       H  0.32848099  0.83338725  0.78532813     0.06200
C1463       C  0.40507510  0.83651064  0.50159666     0.80300
N1464       N  0.42699087  0.85572806  0.48154594    -0.78000
C1465       C  0.42814614  0.85550145  0.94467213     0.82800
N1466       N  0.40652340  0.83309584  0.92928634    -0.77900
C1467       C  0.38395221  0.81436588  0.94904900     0.82900
N1468       N  0.38383822  0.81687098  0.98493328    -0.79600
O1469       O  0.17172300  0.64233864  0.98409033    -0.85200
O1470       O  0.15675425  0.57256601  0.96572512    -0.82300
C1471       C  0.14522804  0.04225723  0.95753448     0.98200
O1472       O  0.11308888  0.03884433  0.96043491    -0.82300
O1473       O  0.08640327  0.56376531  0.53025848    -0.85000
C1474       C  0.07242238  0.58259720  0.55405260     1.02800
O1475       O  0.07651498  0.61674425  0.55221385    -0.77700
O1476       O  0.14438680  0.63762082  0.53438881    -0.77900
C1477       C  0.17213682  0.64310452  0.51895040     1.02700
O1478       O  0.12430242  0.66428676  0.92674927    -0.85200
O1479       O  0.11173284  0.59138428  0.90769218    -0.82300
C1480       C  0.08120965  0.58094034  0.90345892     0.98300
O1481       O  0.06121386  0.58239509  0.92933856    -0.82300
O1482       O  0.03457051  0.61084682  0.49725336    -0.84900
C1483       C  0.03173867  0.64565966  0.50089297     1.02700
O1484       O  0.05736558  0.66460406  0.49779984    -0.77700
O1485       O  0.11808786  0.69023129  0.97870815    -0.77900
C1486       C  0.12255536  0.69274156  0.94501613     1.02700
Cr1487     Cr  0.13808665  0.61752569  0.94831306     1.93700
Cr1488     Cr  0.07590474  0.57767253  0.97864114     1.93200
Cr1489     Cr  0.10050485  0.64869655  0.51402607     1.39100
O1490       O  0.10362804  0.61560529  0.97845555    -1.23000
C1491       C  0.99950529  0.66785860  0.50373882     0.03300
C1492       C  0.97902675  0.67567239  0.53501333    -0.12900
C1493       C  0.95566608  0.70600471  0.53508529     0.00800
C1494       C  0.45398918  0.72692706  0.50398510    -0.11400
C1495       C  0.96746107  0.71615836  0.96795300     0.03200
C1496       C  0.99256170  0.69002760  0.96931270    -0.10800
H1497       H  0.98127602  0.65899339  0.55839240     0.08800
H1498       H  0.43520129  0.74800763  0.50168959     0.05200
H1499       H  0.00741813  0.68540068  0.94558383     0.06200
C1500       C  0.30519767  0.76501901  0.70405638     0.03300
C1501       C  0.30069178  0.73116570  0.71862042    -0.12900
C1502       C  0.28234225  0.72608378  0.74941800     0.00800
C1503       C  0.26160547  0.75434289  0.76182376    -0.11400
C1504       C  0.26507798  0.79074646  0.74980369     0.03200
C1505       C  0.28726799  0.79563306  0.71961568    -0.10800
H1506       H  0.31273976  0.70799698  0.70618972     0.08800
H1507       H  0.24655764  0.74854552  0.78504464     0.06400
H1508       H  0.29086579  0.82230952  0.70878854     0.06200
C1509       C  0.19925758  0.97103158  0.90063368     0.03300
C1510       C  0.16951082  0.98789442  0.91630305    -0.12900
C1511       C  0.17202847  0.01432913  0.94469592     0.00800
C1512       C  0.20484475  0.02066575  0.95757925    -0.11400
C1513       C  0.23328979  0.00433487  0.94241518     0.03200
C1514       C  0.23015510  0.98050537  0.91414667    -0.10800
H1515       H  0.14522272  0.98129863  0.90598583     0.08800
H1516       H  0.20875989  0.03985165  0.97886290     0.06400
H1517       H  0.25245797  0.96723838  0.90386349     0.06200
C1518       C  0.42722170  0.55063195  0.81662128     0.80300
N1519       N  0.43642638  0.52555607  0.84063012    -0.78000
C1520       C  0.41583681  0.49881347  0.85060034     0.82800
N1521       N  0.38574636  0.49580528  0.83440130    -0.77900
C1522       C  0.37710241  0.51878877  0.80818941     0.82900
N1523       N  0.39746971  0.54699170  0.80047635    -0.79600
O1524       O  0.42571615  0.71481603  0.59308738    -0.85200
O1525       O  0.39990754  0.78361124  0.60631305    -0.82300
C1526       C  0.38733162  0.80964587  0.62276783     0.98200
O1527       O  0.35542437  0.81210382  0.62005770    -0.82300
O1528       O  0.33539999  0.78903480  0.54577667    -0.85000
C1529       C  0.32435040  0.76857646  0.01822859     1.02800
O1530       O  0.33324377  0.73469897  0.52406726    -0.77700
O1531       O  0.39834786  0.71856718  0.54359128    -0.77900
C1532       C  0.42553996  0.71266080  0.55919472     1.02700
O1533       O  0.38101206  0.68716878  0.64662290    -0.85200
O1534       O  0.35633418  0.75745972  0.66721457    -0.82300
C1535       C  0.32439023  0.76342210  0.66950224     0.98300
O1536       O  0.30688345  0.76157714  0.64230422    -0.82300
O1537       O  0.28583408  0.73729194  0.57759741    -0.84900
C1538       C  0.28402140  0.70240720  0.57528115     1.02700
O1539       O  0.31073104  0.68404387  0.57637095    -0.77700
O1540       O  0.37686376  0.66448210  0.59283150    -0.77900
C1541       C  0.38297412  0.66022528  0.62592164     1.02700
Cr1542     Cr  0.38817012  0.73651734  0.62648992     1.93700
Cr1543     Cr  0.32399276  0.77229686  0.59546861     1.93200
Cr1544     Cr  0.35500691  0.70310837  0.56191370     1.39100
O1545       O  0.35464654  0.73609193  0.59575831    -1.23000
C1546       C  0.38995113  0.62216850  0.63881976     0.03300
C1547       C  0.41266698  0.61095677  0.66605766    -0.12900
C1548       C  0.41603488  0.57335672  0.67473448     0.00800
C1549       C  0.39609627  0.54837623  0.65575731    -0.11400
C1550       C  0.37246010  0.55914120  0.63061228     0.03200
C1551       C  0.37182469  0.59564681  0.62122531    -0.10800
H1552       H  0.42723540  0.63086426  0.68000098     0.08800
H1553       H  0.39955507  0.51991697  0.66037477     0.06400
H1554       H  0.35494187  0.60464420  0.60093848     0.06200
C1555       C  0.08245656  0.93944166  0.75424792     0.03300
C1556       C  0.08759658  0.92088483  0.72256966    -0.12900
C1557       C  0.11209197  0.89445868  0.71844064     0.00800
C1558       C  0.13301635  0.88574883  0.74606464    -0.11400
C1559       C  0.13021098  0.90296584  0.77921479     0.03200
C1560       C  0.10370828  0.92969164  0.78387882    -0.10800
H1561       H  0.07062215  0.92553547  0.70078899     0.08800
H1562       H  0.15217543  0.86551820  0.74125178     0.06400
H1563       H  0.09992746  0.94254067  0.80944476     0.06200
C1564       C  0.25499811  0.81281457  0.95598686     0.03300
C1565       C  0.22933548  0.79497001  0.97373757    -0.12900
C1566       C  0.23645969  0.77035205  0.00060329     0.00800
C1567       C  0.26795681  0.75700208  0.00327742    -0.11400
C1568       C  0.29486496  0.77839490  0.99483120     0.03200
C1569       C  0.28829884  0.80792334  0.97071886    -0.10800
H1570       H  0.20361223  0.79928079  0.96616232     0.08800
H1571       H  0.27115605  0.73177700  0.01619861     0.06400
H1572       H  0.30782013  0.82632883  0.96437922     0.06200
C1573       C  0.09976677  0.96684180  0.51889843     0.80300
N1574       N  0.12647094  0.48345370  0.53604129    -0.78000
C1575       C  0.15741219  0.46974940  0.53012900     0.82800
N1576       N  0.16147520  0.93924489  0.50838601    -0.77900
C1577       C  0.13505323  0.92210685  0.49436613     0.82900
N1578       N  0.10451080  0.93724829  0.49809050    -0.79600
O1579       O  0.50042382  0.98906445  0.80441018    -0.85200
O1580       O  0.43055746  0.95952529  0.78377350    -0.82300
C1581       C  0.40605738  0.95029220  0.76425568     0.98200
O1582       O  0.40770439  0.95808058  0.73148989    -0.82300
O1583       O  0.42537631  0.52996268  0.71954916    -0.85000
C1584       C  0.43743043  0.55660733  0.70393241     1.02800
O1585       O  0.46901576  0.56062559  0.70687008    -0.77700
O1586       O  0.48722712  0.53676324  0.77593294    -0.77900
C1587       C  0.50275219  0.52348023  0.80141196     1.02700
O1588       O  0.52402872  0.93850282  0.75353046    -0.85200
O1589       O  0.46281396  0.91179481  0.73218680    -0.82300
C1590       C  0.45415988  0.90845222  0.69927386     0.98300
O1591       O  0.45235688  0.93613596  0.67991581    -0.82300
O1592       O  0.47000431  0.50946850  0.66091743    -0.84900
C1593       C  0.50009312  0.52112315  0.65644718     1.02700
O1594       O  0.52113767  0.51557384  0.68050854    -0.77700
O1595       O  0.04478701  0.99316314  0.74880600    -0.77900
C1596       C  0.54899145  0.95883369  0.75434208     1.02700
Cr1597     Cr  0.47855181  0.95296394  0.76591231     1.93700
Cr1598     Cr  0.44186233  0.98388527  0.70023853     1.93200
Cr1599     Cr  0.50343585  0.52332213  0.72914581     1.39100
O1600       O  0.47589659  0.98505127  0.73039540    -1.23000
C1601       C  0.13753310  0.88251042  0.49501690    -0.11800
C1602       C  0.16938717  0.86713388  0.49722902     0.03600
C1603       C  0.17429139  0.83763453  0.51860559    -0.12400
C1604       C  0.14282595  0.81917830  0.02735793     0.18500
C1605       C  0.11068405  0.83245299  0.02054819    -0.09400
C1606       C  0.10709629  0.86622519  0.00435902    -0.02400
H1607       H  0.19974977  0.83014030  0.52384794     0.05000
C1608       C  0.14998401  0.78401139  0.04441751     0.20500
H1609       H  0.08237859  0.87763738  0.00238792     0.10200
C1610       C  0.15132611  0.75530614  0.01983963    -0.15800
C1611       C  0.18288725  0.74257138  0.00899533     0.03200
C1612       C  0.21054173  0.75731544  0.02467948    -0.11100
C1613       C  0.20751888  0.77298695  0.05842489    -0.01100
C1614       C  0.17599158  0.78518550  0.06955482    -0.06300
H1615       H  0.13008637  0.75017767  0.00365075     0.06200
H1616       H  0.22946596  0.78282125  0.07186103     0.09600
Br1617     Br  0.07161224  0.80753063  0.03576726    -0.06000
Br1618     Br  0.20799744  0.88842613  0.47617216    -0.02900
Br1619     Br  0.19279442  0.71502968  0.96718406    -0.00100
Br1620     Br  0.17493700  0.81973265  0.10741683    -0.04400
C1621       C  0.06811987  0.96779225  0.53984264    -0.11800
C1622       C  0.04991555  0.93531688  0.53888873     0.03600
C1623       C  0.05774753  0.90887287  0.56371971    -0.12400
C1624       C  0.07449980  0.91935786  0.59429714     0.18500
C1625       C  0.07659159  0.95666621  0.60174097    -0.09400
C1626       C  0.07278806  0.98127572  0.57418570    -0.02400
H1627       H  0.05163691  0.88101386  0.55867780     0.05000
C1628       C  0.09236239  0.89331283  0.61658159     0.20500
H1629       H  0.08190863  0.50776156  0.58164800     0.10200
C1630       C  0.12553044  0.90160374  0.62503246    -0.15800
C1631       C  0.13721607  0.89444124  0.65897466     0.03200
C1632       C  0.11561290  0.87781209  0.68344107    -0.11100
C1633       C  0.08724842  0.86000776  0.67098652    -0.01100
C1634       C  0.07516631  0.86806659  0.63736635    -0.06300
H1635       H  0.13984588  0.91935227  0.60796514     0.06200
H1636       H  0.07155327  0.84505959  0.68926108     0.09600
Br1637     Br  0.08513660  0.97482750  0.64797092    -0.06000
Br1638     Br  0.02410136  0.92219081  0.49960504    -0.02900
Br1639     Br  0.17764985  0.91746547  0.67358246    -0.00100
Br1640     Br  0.03467716  0.84587985  0.62268519    -0.04400
C1641       C  0.18601561  0.47993887  0.55241580    -0.11800
C1642       C  0.19305242  0.51576465  0.56039746     0.03600
C1643       C  0.22365031  0.52468595  0.57559534    -0.12400
C1644       C  0.24755260  0.49795906  0.58364534     0.18500
C1645       C  0.23806730  0.46145563  0.58053223    -0.09400
C1646       C  0.20770036  0.45286367  0.56466415    -0.02400
H1647       H  0.22944219  0.55276167  0.57927645     0.05000
C1648       C  0.28228738  0.50870768  0.59308377     0.20500
H1649       H  0.20226634  0.92440750  0.55869073     0.10200
C1650       C  0.29690357  0.49613559  0.62444987    -0.15800
C1651       C  0.32805263  0.50872603  0.63595327     0.03200
C1652       C  0.34597148  0.53446588  0.61544450    -0.11100
C1653       C  0.33278879  0.54298013  0.58181670    -0.01100
C1654       C  0.30093011  0.53245184  0.57164716    -0.06300
H1655       H  0.28294747  0.47817946  0.64155200     0.06200
H1656       H  0.34535515  0.56169439  0.56453259     0.09600
Br1657     Br  0.26636552  0.42164500  0.59322647    -0.06000
Br1658     Br  0.16234633  0.55275835  0.54810871    -0.02900
Br1659     Br  0.34211234  0.49002661  0.68073135    -0.00100
Br1660     Br  0.28331004  0.55662719  0.53085324    -0.04400
C1661       C  0.26766167  0.01257113  0.95397830    -0.11800
C1662       C  0.28599141  0.98760495  0.97416713     0.03600
C1663       C  0.32072089  0.98886120  0.97482313    -0.12400
C1664       C  0.33814955  0.01222041  0.95235406     0.18500
C1665       C  0.32000215  0.03982101  0.93480320    -0.09400
C1666       C  0.28496743  0.04012543  0.93649741    -0.02400
H1667       H  0.33418851  0.96773639  0.98858926     0.05000
C1668       C  0.37062261  0.99864494  0.93826614     0.20500
H1669       H  0.27126112  0.05912016  0.92029642     0.10200
C1670       C  0.37097357  0.96401584  0.92230502    -0.15800
C1671       C  0.39627777  0.95459475  0.89816556     0.03200
C1672       C  0.41851569  0.48631311  0.88744978    -0.11100
C1673       C  0.42479143  0.51426162  0.91177409    -0.01100
C1674       C  0.39907481  0.52547726  0.93456433    -0.06300
H1675       H  0.34978512  0.94629762  0.92512450     0.06200
H1676       H  0.44498775  0.53288696  0.90679290     0.09600
Br1677     Br  0.33824656  0.57623726  0.89980124    -0.06000
Br1678     Br  0.26584332  0.94779614  0.99696537    -0.02900
Br1679     Br  0.39331872  0.91210523  0.86959872    -0.00100
Br1680     Br  0.40268690  0.57277175  0.95455300    -0.04400
C1681       C  0.28899167  0.69268971  0.77072753    -0.11800
C1682       C  0.32171173  0.67770829  0.77346380     0.03600
C1683       C  0.32590901  0.64378473  0.78799027    -0.12400
C1684       C  0.29855122  0.62194393  0.79487351     0.18500
C1685       C  0.26716534  0.63858834  0.79970351    -0.09400
C1686       C  0.26274541  0.67423100  0.78785929    -0.02400
H1687       H  0.35061211  0.63227144  0.78924675     0.05000
C1688       C  0.30430815  0.58261349  0.79055496     0.20500
H1689       H  0.23810618  0.68556224  0.78830753     0.10200
C1690       C  0.29878146  0.55879522  0.81885404    -0.15800
C1691       C  0.31696084  0.52639276  0.82014699     0.03200
C1692       C  0.34265347  0.52036208  0.79506987    -0.11100
C1693       C  0.33993986  0.53730239  0.76239675    -0.01100
C1694       C  0.32256999  0.56964378  0.76040487    -0.06300
H1695       H  0.28327566  0.56656442  0.84130487     0.06200
H1696       H  0.35827374  0.53129800  0.74189200     0.09600
Br1697     Br  0.22973510  0.61395191  0.82016110    -0.06000
Br1698     Br  0.36238069  0.69840850  0.75526663    -0.02900
Br1699     Br  0.30934720  0.49334208  0.85812679    -0.00100
Br1700     Br  0.33054115  0.59672540  0.71783865    -0.04400
C1701       C  0.44364591  0.58630825  0.81880946    -0.11800
C1702       C  0.43339533  0.61704137  0.79955837     0.03600
C1703       C  0.43963648  0.65148402  0.81303710    -0.12400
C1704       C  0.45737078  0.65533798  0.84448788     0.18500
C1705       C  0.47368961  0.62529294  0.85893699    -0.09400
C1706       C  0.46554853  0.59137109  0.84719867    -0.02400
H1707       H  0.42761751  0.67473520  0.80126194     0.05000
C1708       C  0.44718189  0.68340121  0.86955054     0.20500
H1709       H  0.47465193  0.56894732  0.86267026     0.10200
C1710       C  0.42682497  0.67195819  0.89756152    -0.15800
C1711       C  0.42621668  0.69051320  0.92933243     0.03200
C1712       C  0.44950437  0.71828885  0.93448116    -0.11100
C1713       C  0.46496193  0.73396588  0.90461380    -0.01100
C1714       C  0.46303173  0.71677361  0.87154063    -0.06300
H1715       H  0.41339932  0.64672672  0.89555236     0.06200
H1716       H  0.98081516  0.75683060  0.90742131     0.09600
Br1717     Br  0.49927214  0.62754237  0.90148828    -0.06000
Br1718     Br  0.40908021  0.61467655  0.75679010    -0.02900
Br1719     Br  0.40178502  0.67007049  0.47329419    -0.00100
Br1720     Br  0.48386560  0.73716729  0.83062117    -0.04400
C1721       C  0.35666079  0.79806783  0.92987048    -0.11800
C1722       C  0.34566585  0.82127191  0.90294077     0.03600
C1723       C  0.35851019  0.81442073  0.86934472    -0.12400
C1724       C  0.37288376  0.78065404  0.86169642     0.18500
C1725       C  0.36763915  0.75241006  0.88571055    -0.09400
C1726       C  0.36095892  0.76153474  0.92116519    -0.02400
H1727       H  0.35842349  0.83557756  0.84975101     0.05000
C1728       C  0.38676574  0.77577684  0.82610187     0.20500
H1729       H  0.36233016  0.74129041  0.94172110     0.10200
C1730       C  0.41714626  0.79277541  0.81898264    -0.15800
C1731       C  0.42004862  0.81461325  0.78895600     0.03200
C1732       C  0.39194670  0.81847415  0.76674747    -0.11100
C1733       C  0.37022812  0.78884561  0.76617310    -0.01100
C1734       C  0.36380774  0.77217773  0.79885376    -0.06300
H1735       H  0.43525866  0.79545506  0.83992712     0.06200
H1736       H  0.35034833  0.78920741  0.74718247     0.09600
Br1737     Br  0.36197231  0.70395256  0.86943519    -0.06000
Br1738     Br  0.33167417  0.86987525  0.91360375    -0.02900
Br1739     Br  0.45703646  0.84685332  0.78776827    -0.00100
Br1740     Br  0.31889872  0.76135761  0.81258905    -0.04400
C1741       C  0.08502738  0.82348621  0.93241684    -0.11800
C1742       C  0.05152507  0.81998348  0.94402469     0.03600
C1743       C  0.03007810  0.84938489  0.94146521    -0.12400
C1744       C  0.03965155  0.88041989  0.92264711     0.18500
C1745       C  0.07346669  0.88648437  0.91662921    -0.09400
C1746       C  0.09616573  0.85874720  0.92353324    -0.02400
H1747       H  0.00425038  0.84556273  0.94896272     0.05000
C1748       C  0.01342106  0.89951726  0.90252264     0.20500
H1749       H  0.12236170  0.86399249  0.91852387     0.10200
C1750       C  0.99394430  0.92346142  0.92261346    -0.15800
C1751       C  0.96335614  0.91121949  0.93582180     0.03200
C1752       C  0.45093680  0.87749427  0.92298886    -0.11100
C1753       C  0.46518286  0.86275597  0.89174698    -0.01100
C1754       C  0.99614688  0.87600488  0.87993732    -0.06300
H1755       H  0.00525414  0.94712007  0.93408522     0.06200
H1756       H  0.45513397  0.83852469  0.88008973     0.09600
Br1757     Br  0.08884476  0.93049660  0.89603512    -0.06000
Br1758     Br  0.03003352  0.77617905  0.95772933    -0.02900
Br1759     Br  0.94183330  0.93808547  0.97317585    -0.00100
Br1760     Br  0.02137236  0.84760336  0.84632343    -0.04400
C1761       C  0.40554073  0.84297882  0.53980114    -0.11800
C1762       C  0.43769221  0.84454534  0.55396860     0.03600
C1763       C  0.94877121  0.87718404  0.56728131    -0.12400
C1764       C  0.42574202  0.90585595  0.57340866     0.18500
C1765       C  0.39127544  0.89811621  0.57124200    -0.09400
C1766       C  0.38126024  0.86696235  0.55314730    -0.02400
H1767       H  0.97539186  0.88115359  0.56771329     0.05000
C1768       C  0.43897390  0.94342957  0.57292638     0.20500
H1769       H  0.35545858  0.86440281  0.54517071     0.10200
C1770       C  0.92192016  0.97139134  0.55543863    -0.15800
C1771       C  0.93674381  0.00532216  0.55102354     0.03200
C1772       C  0.97054767  0.01009488  0.55880549    -0.11100
C1773       C  0.98778206  0.98132841  0.57398308    -0.01100
C1774       C  0.97171306  0.95039523  0.58450501    -0.06300
H1775       H  0.89701411  0.96756940  0.54540915     0.06200
H1776       H  0.01210000  0.98588203  0.58456816     0.09600
Br1777     Br  0.35749787  0.92930391  0.59078044    -0.06000
Br1778     Br  0.97201247  0.81013255  0.54036848    -0.02900
Br1779     Br  0.90922743  0.54774469  0.54169271    -0.00100
Br1780     Br  0.49412313  0.92343832  0.61978222    -0.04400
C1781       C  0.13627645  0.68435737  0.64790065    -0.11800
C1782       C  0.10658860  0.66402950  0.64800316     0.03600
C1783       C  0.07594174  0.68190974  0.64637481    -0.12400
C1784       C  0.07524277  0.71914299  0.64170676     0.18500
C1785       C  0.10464564  0.73698438  0.63185798    -0.09400
C1786       C  0.13510813  0.71883670  0.63302010    -0.02400
H1787       H  0.05301453  0.66733346  0.65135019     0.05000
C1788       C  0.04525821  0.73950468  0.65207230     0.20500
H1789       H  0.15787366  0.73429180  0.63035497     0.10200
C1790       C  0.54093834  0.74979822  0.68770707    -0.15800
C1791       C  0.51385266  0.77150408  0.69804591     0.03200
C1792       C  0.49041403  0.78250088  0.67254559    -0.11100
C1793       C  0.49421949  0.77003138  0.63724517    -0.01100
C1794       C  0.02135309  0.74905814  0.62706869    -0.06300
H1795       H  0.55916066  0.74176263  0.70725647     0.06200
H1796       H  0.47670355  0.77827976  0.61705379     0.09600
Br1797     Br  0.10517445  0.78724011  0.62384875    -0.06000
Br1798     Br  0.10576362  0.61321489  0.65421975    -0.02900
Br1799     Br  0.50962139  0.78351649  0.74719542    -0.00100
Br1800     Br  0.02625304  0.73510901  0.57836462    -0.04400
C1801       C  0.05062492  0.64814715  0.80271771    -0.11800
C1802       C  0.06416264  0.65475147  0.76894884     0.03600
C1803       C  0.07976860  0.68761504  0.76227233    -0.12400
C1804       C  0.08255954  0.71348444  0.78945294     0.18500
C1805       C  0.06406538  0.70932613  0.82086766    -0.09400
C1806       C  0.04764576  0.67691658  0.82706824    -0.02400
H1807       H  0.09404040  0.69060743  0.73785719     0.05000
C1808       C  0.11308426  0.73517149  0.78917147     0.20500
H1809       H  0.03684496  0.67246278  0.85308124     0.10200
C1810       C  0.11747525  0.76113063  0.76249058    -0.15800
C1811       C  0.14915529  0.76473664  0.74674164     0.03200
C1812       C  0.17406134  0.73957885  0.75607665    -0.11100
C1813       C  0.17310592  0.72885766  0.79169326    -0.01100
C1814       C  0.14177598  0.72077156  0.80580797    -0.06300
H1815       H  0.09607703  0.77415824  0.75058718     0.06200
H1816       H  0.19413466  0.71488509  0.80279953     0.09600
Br1817     Br  0.06620415  0.74405881  0.85846853    -0.06000
Br1818     Br  0.06837242  0.61717049  0.73445039    -0.02900
Br1819     Br  0.15408416  0.79396726  0.70541766    -0.00100
Br1820     Br  0.14002344  0.67979882  0.83691034    -0.04400
C1821       C  0.19347767  0.61085084  0.73571565    -0.11800
C1822       C  0.22790368  0.60397473  0.73273635     0.03600
C1823       C  0.23879521  0.56806814  0.73464618    -0.12400
C1824       C  0.21626988  0.54295051  0.72068755     0.18500
C1825       C  0.18460294  0.54659103  0.73728383    -0.09400
C1826       C  0.17181704  0.58175295  0.74204161    -0.02400
H1827       H  0.26501070  0.56291246  0.73090576     0.05000
C1828       C  0.21748538  0.54459908  0.68023982     0.20500
H1829       H  0.14566177  0.58616890  0.74831434     0.10200
C1830       C  0.24811479  0.55433523  0.66416669    -0.15800
C1831       C  0.24982079  0.58460856  0.64200187     0.03200
C1832       C  0.22043958  0.60217511  0.63071691    -0.11100
C1833       C  0.19005760  0.58537139  0.63947870    -0.01100
C1834       C  0.18880476  0.55553308  0.66178965    -0.06300
H1835       H  0.27120009  0.54378218  0.67476295     0.06200
H1836       H  0.16689042  0.59499899  0.62898199     0.09600
Br1837     Br  0.15951035  0.50539854  0.75194272    -0.06000
Br1838     Br  0.25666313  0.63916333  0.71139879    -0.02900
Br1839     Br  0.29292600  0.60236337  0.63130763    -0.00100
Br1840     Br  0.14785545  0.53014487  0.66502192    -0.04400
C1841       C  0.74893680  0.18228587  0.07384643     0.03300
C1842       C  0.74213763  0.16171696  0.10440833    -0.12900
C1843       C  0.71879936  0.13351849  0.10414733     0.00800
C1844       C  0.69569406  0.13283606  0.07682118    -0.11400
C1845       C  0.69953067  0.15155752  0.04496030     0.03200
C1846       C  0.72848109  0.17487768  0.04274313    -0.10800
H1847       H  0.75712400  0.16598739  0.12778162     0.08800
H1848       H  0.67453030  0.11577781  0.07959667     0.06400
H1849       H  0.73720629  0.18584797  0.51785140     0.06200
C1850       C  0.56397682  0.07703416  0.36843701     0.03300
C1851       C  0.56603575  0.10848479  0.34894866    -0.12900
C1852       C  0.54621090  0.11468846  0.31966333     0.00800
C1853       C  0.52667827  0.08696497  0.30599739    -0.11400
C1854       C  0.02467203  0.05212012  0.32186913     0.03200
C1855       C  0.54272446  0.04801974  0.35503513    -0.10800
H1856       H  0.58140247  0.13029865  0.35870161     0.08800
H1857       H  0.01258657  0.09356540  0.28268413     0.06400
H1858       H  0.04049826  0.52454170  0.36949777     0.06200
C1859       C  0.94395458  0.37393943  0.18213761     0.03300
C1860       C  0.91508931  0.36544346  0.15998799    -0.12900
C1861       C  0.90765447  0.32838952  0.15024120     0.00800
C1862       C  0.92856617  0.30200416  0.16499786    -0.11400
C1863       C  0.95972019  0.31019438  0.17867473     0.03200
C1864       C  0.96649447  0.34566150  0.18925455    -0.10800
H1865       H  0.89916828  0.38700316  0.15080036     0.08800
H1866       H  0.92376573  0.27373387  0.15985837     0.06400
H1867       H  0.99041055  0.35176301  0.20100253     0.06200
C1868       C  0.65650018  0.18079982  0.17609448     0.80300
N1869       N  0.66233018  0.21065305  0.19601038    -0.78000
C1870       C  0.67759496  0.20880146  0.22792097     0.82800
N1871       N  0.68782844  0.17597345  0.23955943    -0.77900
C1872       C  0.68186170  0.14590210  0.22014256     0.82900
N1873       N  0.66585978  0.14822665  0.18867059    -0.79600
O1874       O  0.65464508  0.38645530  0.33967884    -0.85200
O1875       O  0.67700204  0.31485451  0.34912016    -0.82300
C1876       C  0.68551868  0.28823186  0.36713939     0.98200
O1877       O  0.71686694  0.28606518  0.37241469    -0.82300
O1878       O  0.73626821  0.30694777  0.30300069    -0.85000
C1879       C  0.74880362  0.32016028  0.27526074     1.02800
O1880       O  0.75014386  0.35516985  0.27406739    -0.77700
O1881       O  0.68525476  0.38661711  0.29162915    -0.77900
C1882       C  0.65722825  0.39231067  0.30648050     1.02700
O1883       O  0.69564873  0.40689561  0.39598627    -0.85200
O1884       O  0.71539837  0.33667102  0.41546005    -0.82300
C1885       C  0.74682470  0.33120084  0.42260239     0.98300
O1886       O  0.76774031  0.33560361  0.39787401    -0.82300
O1887       O  0.79117708  0.35092345  0.32826803    -0.84900
C1888       C  0.79872197  0.38388144  0.32108462     1.02700
O1889       O  0.77663308  0.40764117  0.32621972    -0.77700
O1890       O  0.71172711  0.43525325  0.34683122    -0.77900
C1891       C  0.70044096  0.43586663  0.37945104     1.02700
Cr1892     Cr  0.68813226  0.36060012  0.37335645     1.93700
Cr1893     Cr  0.75139685  0.32295777  0.34977352     1.93200
Cr1894     Cr  0.73012859  0.39379213  0.31250912     1.39100
O1895       O  0.72450315  0.36133037  0.34677393    -1.23000
C1896       C  0.50728863  0.04569934  0.12297526     0.03300
C1897       C  0.48016661  0.55450482  0.10127282    -0.12900
C1898       C  0.48462431  0.54780203  0.06529396     0.00800
C1899       C  0.51442118  0.05889234  0.05069550    -0.11400
C1900       C  0.54168473  0.06844366  0.07231126     0.03200
C1901       C  0.53918429  0.05752585  0.10914164    -0.10800
H1902       H  0.45528841  0.55009373  0.11176386     0.08800
H1903       H  0.51803817  0.05503963  0.02243718     0.06400
H1904       H  0.56122568  0.05611203  0.12539512     0.06200
C1905       C  0.62918817  0.22863224  0.43110978     0.03300
C1906       C  0.60989822  0.25762219  0.44432422    -0.12900
C1907       C  0.61064270  0.29174070  0.42819893     0.00800
C1908       C  0.63360141  0.29704914  0.40064928    -0.11400
C1909       C  0.65838552  0.27212973  0.39103264     0.03200
C1910       C  0.65479398  0.23648078  0.40480456    -0.10800
H1911       H  0.59441957  0.25292200  0.46722361     0.08800
H1912       H  0.63238399  0.32201227  0.38620567     0.06400
H1913       H  0.67216738  0.21562242  0.39639324     0.06200
C1914       C  0.83105241  0.39127225  0.29988140     0.03300
C1915       C  0.85006490  0.42423468  0.29492022    -0.12900
C1916       C  0.88059193  0.42390144  0.27347859     0.00800
C1917       C  0.89020206  0.39065321  0.25882038    -0.11400
C1918       C  0.87370057  0.35883929  0.26521872     0.03200
C1919       C  0.84258527  0.36073378  0.28185044    -0.10800
H1920       H  0.84145621  0.44877024  0.30728801     0.08800
H1921       H  0.91223844  0.38836584  0.24285880     0.06400
H1922       H  0.82769245  0.33677046  0.28279024     0.06200
C1923       C  0.90857016  0.34305323  0.00273819     0.80300
N1924       N  0.92931926  0.36424734  0.98300436    -0.78000
C1925       C  0.92624052  0.35590829  0.44650963     0.82800
N1926       N  0.90642930  0.33188652  0.43081490    -0.77900
C1927       C  0.88320013  0.31333874  0.44962398     0.82900
N1928       N  0.88097965  0.31720822  0.48541336    -0.79600
O1929       O  0.67310844  0.13997633  0.48463138    -0.85200
O1930       O  0.65698665  0.07068031  0.46452480    -0.82300
C1931       C  0.64468345  0.54132817  0.45783888     0.98200
O1932       O  0.61254791  0.53825559  0.46124082    -0.82300
O1933       O  0.58621544  0.06530096  0.02935832    -0.85000
C1934       C  0.57163243  0.08431763  0.05263280     1.02800
O1935       O  0.57460151  0.11852052  0.04986892    -0.77700
O1936       O  0.64196319  0.14010103  0.03371652    -0.77900
C1937       C  0.67009633  0.14498757  0.01901579     1.02700
O1938       O  0.62421935  0.16368788  0.42925157    -0.85200
O1939       O  0.61031429  0.09168346  0.40859161    -0.82300
C1940       C  0.57958477  0.08167574  0.40497001     0.98300
O1941       O  0.56046351  0.08216926  0.43158917    -0.82300
O1942       O  0.53381682  0.11112037  0.99484944    -0.84900
C1943       C  0.53040076  0.14597853  0.99766618     1.02700
O1944       O  0.55578926  0.16514630  0.99393305    -0.77700
O1945       O  0.62029616  0.18856170  0.48190993    -0.77900
C1946       C  0.62396478  0.19172732  0.44813284     1.02700
Cr1947     Cr  0.63806904  0.11631225  0.44923024     1.93700
Cr1948     Cr  0.57599088  0.07659711  0.48064129     1.93200
Cr1949     Cr  0.59868218  0.15017760  0.01172366     1.39100
O1950       O  0.60443300  0.11401856  0.48055852    -1.23000
C1951       C  0.49783219  0.16788440  0.00041857     0.03300
C1952       C  0.47725656  0.17607384  0.03164394    -0.12900
C1953       C  0.45355510  0.20624398  0.03141206     0.00800
C1954       C  0.95189960  0.22692158  0.00038074    -0.11400
C1955       C  0.46971101  0.21572221  0.47227254     0.03200
C1956       C  0.49473588  0.18959248  0.47347830    -0.10800
H1957       H  0.47973693  0.15981941  0.05527922     0.08800
H1958       H  0.93298105  0.24785260  0.99795875     0.05200
H1959       H  0.50971200  0.18519084  0.44980198     0.06200
C1960       C  0.80451134  0.26631120  0.20293474     0.03300
C1961       C  0.80040352  0.23240393  0.21750263    -0.12900
C1962       C  0.78182176  0.22700846  0.24811683     0.00800
C1963       C  0.76062907  0.25489145  0.26040344    -0.11400
C1964       C  0.76427989  0.29148648  0.24906259     0.03200
C1965       C  0.78644625  0.29673659  0.21883070    -0.10800
H1966       H  0.81282459  0.20942068  0.20514350     0.08800
H1967       H  0.74521721  0.24868689  0.28326003     0.06400
H1968       H  0.79003295  0.32354635  0.20832460     0.06200
C1969       C  0.69866563  0.46955078  0.40233837     0.03300
C1970       C  0.66881373  0.48662881  0.41739038    -0.12900
C1971       C  0.67105901  0.51259346  0.44617150     0.00800
C1972       C  0.70359019  0.51817735  0.46010406    -0.11400
C1973       C  0.73217238  0.50165713  0.44546758     0.03200
C1974       C  0.72939012  0.47829861  0.41678225    -0.10800
H1975       H  0.64470115  0.48064492  0.40624389     0.08800
H1976       H  0.70724064  0.53732388  0.48148182     0.06400
H1977       H  0.75184298  0.46523353  0.40653021     0.06200
C1978       C  0.92658997  0.05127753  0.31965995     0.80300
N1979       N  0.93583277  0.02580840  0.34329836    -0.78000
C1980       C  0.91534512  0.99856137  0.35242452     0.82800
N1981       N  0.88527556  0.99577962  0.33606797    -0.77900
C1982       C  0.87660673  0.01940676  0.31043666     0.82900
N1983       N  0.89690443  0.04779667  0.30339101    -0.79600
O1984       O  0.92449477  0.21716567  0.09005679    -0.85200
O1985       O  0.89818310  0.28612071  0.10419895    -0.82300
C1986       C  0.88528162  0.31194251  0.12083826     0.98200
O1987       O  0.85334473  0.31377792  0.11830672    -0.82300
O1988       O  0.83344600  0.29000288  0.04423154    -0.85000
C1989       C  0.82686904  0.26821570  0.52061970     1.02800
O1990       O  0.83088837  0.23543255  0.02296915    -0.77700
O1991       O  0.89627355  0.21835103  0.04088098    -0.77900
C1992       C  0.92380292  0.21347678  0.05622150     1.02700
O1993       O  0.88111854  0.18925458  0.14488320    -0.85200
O1994       O  0.85542108  0.25912176  0.16540374    -0.82300
C1995       C  0.82342663  0.26485483  0.16809725     0.98300
O1996       O  0.80564038  0.26285460  0.14108915    -0.82300
O1997       O  0.78395461  0.23846129  0.07660107    -0.84900
C1998       C  0.78204889  0.20356531  0.07499035     1.02700
O1999       O  0.80879503  0.18526849  0.07633001    -0.77700
O2000       O  0.87537721  0.16578729  0.09165358    -0.77900
C2001       C  0.88255936  0.16202200  0.12455273     1.02700
Cr2002     Cr  0.88720293  0.23861288  0.12425468     1.93700
Cr2003     Cr  0.82226602  0.27353706  0.09401877     1.93200
Cr2004     Cr  0.85301730  0.20396892  0.06067490     1.39100
O2005       O  0.85326232  0.23756164  0.09404695    -1.23000
C2006       C  0.89006097  0.12410762  0.13775970     0.03300
C2007       C  0.91283266  0.11315806  0.16513749    -0.12900
C2008       C  0.91660023  0.07553067  0.17376091     0.00800
C2009       C  0.89688216  0.05035922  0.15481733    -0.11400
C2010       C  0.87317698  0.06088827  0.12973429     0.03200
C2011       C  0.87220061  0.09731984  0.12028791    -0.10800
H2012       H  0.92708859  0.13322116  0.17923804     0.08800
H2013       H  0.90041686  0.02190745  0.15951121     0.06400
H2014       H  0.85533394  0.10598810  0.09989918     0.06200
C2015       C  0.58145121  0.43948635  0.25535502     0.03300
C2016       C  0.58523551  0.41833014  0.22506026    -0.12900
C2017       C  0.60782989  0.38978972  0.22261307     0.00800
C2018       C  0.62861515  0.38155339  0.25055707    -0.11400
C2019       C  0.62793924  0.40168015  0.28212798     0.03200
C2020       C  0.60302312  0.43062147  0.28522813    -0.10800
H2021       H  0.56860834  0.42285043  0.20293993     0.08800
H2022       H  0.64653393  0.35980368  0.24699278     0.06400
H2023       H  0.60067510  0.44571134  0.30976802     0.06200
C2024       C  0.75752753  0.31223739  0.45718904     0.03300
C2025       C  0.73212090  0.29389602  0.47494467    -0.12900
C2026       C  0.73971482  0.26898868  0.50141695     0.00800
C2027       C  0.77124940  0.25579687  0.50376541    -0.11400
C2028       C  0.79781463  0.27797798  0.49630021     0.03200
C2029       C  0.79088713  0.30778779  0.47234811    -0.10800
H2030       H  0.70625602  0.29833693  0.46798471     0.08800
H2031       H  0.77456772  0.23065575  0.51693659     0.06400
H2032       H  0.81009759  0.32678948  0.46665447     0.06200
C2033       C  0.60208624  0.46817246  0.02126414     0.80300
N2034       N  0.62799168  0.98529855  0.03651196    -0.78000
C2035       C  0.65862089  0.97111186  0.02982658     0.82800
N2036       N  0.66301218  0.43979793  0.00797132    -0.77900
C2037       C  0.63594559  0.42380837  0.99394742     0.82900
N2038       N  0.60586226  0.43958667  0.99895596    -0.79600
O2039       O  0.99917192  0.49220763  0.30334949    -0.85200
O2040       O  0.92955491  0.46302351  0.28254721    -0.82300
C2041       C  0.90487378  0.45429477  0.26311801     0.98200
O2042       O  0.90660716  0.46228133  0.23038576    -0.82300
O2043       O  0.92570527  0.03240429  0.21887433    -0.85000
C2044       C  0.93794256  0.05881698  0.20301367     1.02800
O2045       O  0.96960028  0.06228913  0.20559130    -0.77700
O2046       O  0.98718230  0.03861462  0.27482218    -0.77900
C2047       C  0.00197269  0.02526765  0.30078173     1.02700
O2048       O  0.02298963  0.44092618  0.25284939    -0.85200
O2049       O  0.96179500  0.41474092  0.23041756    -0.82300
C2050       C  0.95264175  0.41128709  0.19758644     0.98300
O2051       O  0.95031991  0.43909771  0.17840875    -0.82300
O2052       O  0.96957513  0.01092079  0.15984517    -0.84900
C2053       C  0.99976366  0.02217024  0.15513013     1.02700
O2054       O  0.02089794  0.01657216  0.17919179    -0.77700
O2055       O  0.54478691  0.49467897  0.24821515    -0.77900
C2056       C  0.04834566  0.46065745  0.25431716     1.02700
Cr2057     Cr  0.97753382  0.45594178  0.26464185     1.93700
Cr2058     Cr  0.94120601  0.48734318  0.19900569     1.93200
Cr2059     Cr  0.00349541  0.02455991  0.22805800     1.39100
O2060       O  0.97542402  0.48791704  0.22905018    -1.23000
C2061       C  0.63729763  0.38406947  0.99269289    -0.11800
C2062       C  0.66866462  0.36748924  0.99486755     0.03600
C2063       C  0.67222834  0.33685337  0.01493690    -0.12400
C2064       C  0.64698807  0.31892926  0.53140036     0.18500
C2065       C  0.61435983  0.33069850  0.52445630    -0.09400
C2066       C  0.60945848  0.36361476  0.50714463    -0.02400
H2067       H  0.69729981  0.32856681  0.02089073     0.05000
C2068       C  0.65530840  0.28454641  0.54929816     0.20500
H2069       H  0.58433851  0.37396530  0.50486874     0.10200
C2070       C  0.65528642  0.25491449  0.52575089    -0.15800
C2071       C  0.68626397  0.24209718  0.51333703     0.03200
C2072       C  0.71471745  0.25709748  0.52704432    -0.11100
C2073       C  0.71347457  0.27392900  0.56034329    -0.01100
C2074       C  0.68264874  0.28676297  0.57281466    -0.06300
H2075       H  0.63323989  0.24910724  0.51081763     0.06200
H2076       H  0.73610703  0.28423999  0.57205446     0.09600
Br2077     Br  0.57616765  0.30464788  0.54001201    -0.06000
Br2078     Br  0.70864523  0.38847836  0.97650582    -0.02900
Br2079     Br  0.69372161  0.21404756  0.47146899    -0.00100
Br2080     Br  0.68407850  0.32316638  0.60906995    -0.04400
C2081       C  0.57126617  0.46819112  0.04341921    -0.11800
C2082       C  0.55270109  0.43598418  0.04164539     0.03600
C2083       C  0.55890571  0.40946185  0.06684664    -0.12400
C2084       C  0.57442011  0.41944045  0.09830503     0.18500
C2085       C  0.57786510  0.45664870  0.10567729    -0.09400
C2086       C  0.57618716  0.48131310  0.07789804    -0.02400
H2087       H  0.55241755  0.38176326  0.06148424     0.05000
C2088       C  0.58958919  0.39258104  0.12185881     0.20500
H2089       H  0.58454941  0.00907124  0.08354180     0.10200
C2090       C  0.62303042  0.39796128  0.13113876    -0.15800
C2091       C  0.63418130  0.38706156  0.16427375     0.03200
C2092       C  0.61106166  0.37194381  0.18810127    -0.11100
C2093       C  0.58160188  0.35711877  0.17466086    -0.01100
C2094       C  0.57048667  0.36767608  0.14126168    -0.06300
H2095       H  0.63887125  0.41504283  0.11496142     0.06200
H2096       H  0.56468061  0.34279383  0.19216828     0.09600
Br2097     Br  0.58467674  0.47451897  0.15242378    -0.06000
Br2098     Br  0.52856659  0.42302676  0.00095213    -0.02900
Br2099     Br  0.67729937  0.40295334  0.17931927    -0.00100
Br2100     Br  0.52943283  0.34827433  0.12457563    -0.04400
C2101       C  0.68770396  0.98097014  0.05146540    -0.11800
C2102       C  0.69530470  0.01677514  0.05906102     0.03600
C2103       C  0.72599414  0.02527731  0.07409456    -0.12400
C2104       C  0.74959008  0.99828440  0.08207525     0.18500
C2105       C  0.73977755  0.96189911  0.07913715    -0.09400
C2106       C  0.70915690  0.95363162  0.06364016    -0.02400
H2107       H  0.73211274  0.05329489  0.07764689     0.05000
C2108       C  0.78431719  0.00878912  0.09137764     0.20500
H2109       H  0.70626998  0.42411433  0.05627346     0.10200
C2110       C  0.79873346  0.99652946  0.12295360    -0.15800
C2111       C  0.82938082  0.00997116  0.13493320     0.03200
C2112       C  0.84711408  0.03587068  0.11448280    -0.11100
C2113       C  0.83420503  0.04401184  0.08067936    -0.01100
C2114       C  0.80277942  0.03277731  0.07007150    -0.06300
H2115       H  0.78473969  0.97859624  0.14004918     0.06200
H2116       H  0.84636429  0.06318701  0.06362661     0.09600
Br2117     Br  0.76802075  0.92193124  0.09145000    -0.06000
Br2118     Br  0.66548910  0.05455251  0.04654658    -0.02900
Br2119     Br  0.84222611  0.99346211  0.18090337    -0.00100
Br2120     Br  0.78534248  0.05673927  0.02903577    -0.04400
C2121       C  0.76641451  0.51077044  0.45673051    -0.11800
C2122       C  0.78573766  0.48636791  0.47657669     0.03600
C2123       C  0.82041641  0.48879896  0.47661803    -0.12400
C2124       C  0.83678627  0.51279765  0.45391878     0.18500
C2125       C  0.81762469  0.53979446  0.43675540    -0.09400
C2126       C  0.78266493  0.53892683  0.43904834    -0.02400
H2127       H  0.83472421  0.46809396  0.49004822     0.05000
C2128       C  0.86936901  0.50039067  0.43923117     0.20500
H2129       H  0.76819261  0.55752811  0.42315553     0.10200
C2130       C  0.87032970  0.46607777  0.42269504    -0.15800
C2131       C  0.89591683  0.45742605  0.39864160     0.03200
C2132       C  0.91810624  0.98461126  0.38877296    -0.11100
C2133       C  0.92371300  0.01186157  0.41400413    -0.01100
C2134       C  0.89725873  0.02263339  0.43605255    -0.06300
H2135       H  0.84939739  0.44796156  0.42514567     0.06200
H2136       H  0.94399014  0.03063525  0.41001014     0.09600
Br2137     Br  0.83445492  0.07355140  0.40288063    -0.06000
Br2138     Br  0.76726514  0.44576593  0.49962992    -0.02900
Br2139     Br  0.89358389  0.41508474  0.36969917    -0.00100
Br2140     Br  0.89991448  0.06982230  0.45651176    -0.04400
C2141       C  0.78857402  0.19367896  0.26939568    -0.11800
C2142       C  0.82136297  0.17894957  0.27225077     0.03600
C2143       C  0.82566485  0.14481334  0.28623943    -0.12400
C2144       C  0.79842677  0.12274083  0.29306505     0.18500
C2145       C  0.76683953  0.13911139  0.29755654    -0.09400
C2146       C  0.76227199  0.17483261  0.28599352    -0.02400
H2147       H  0.85045077  0.13355321  0.28760155     0.05000
C2148       C  0.80469930  0.08336946  0.28994185     0.20500
H2149       H  0.73753054  0.18608830  0.28639423     0.10200
C2150       C  0.79846248  0.06010119  0.31855879    -0.15800
C2151       C  0.81624480  0.02749334  0.32075331     0.03200
C2152       C  0.84245962  0.02083519  0.29647332    -0.11100
C2153       C  0.84069206  0.03735729  0.26350304    -0.01100
C2154       C  0.82358673  0.06978483  0.26050565    -0.06300
H2155       H  0.78241056  0.06827296  0.34042794     0.06200
H2156       H  0.85947910  0.03088859  0.24361237     0.09600
Br2157     Br  0.72919898  0.11399508  0.31694967    -0.06000
Br2158     Br  0.86208332  0.20054778  0.25517476    -0.02900
Br2159     Br  0.80647222  0.99422682  0.35804405    -0.00100
Br2160     Br  0.83203689  0.09590699  0.21735260    -0.04400
C2161       C  0.94254078  0.08714342  0.32234798    -0.11800
C2162       C  0.93214672  0.11772033  0.30290187     0.03600
C2163       C  0.93723225  0.15229337  0.31671876    -0.12400
C2164       C  0.95463164  0.15652089  0.34835312     0.18500
C2165       C  0.97117390  0.12668226  0.36303355    -0.09400
C2166       C  0.96377042  0.09254804  0.35120068    -0.02400
H2167       H  0.92517583  0.17532895  0.30459508     0.05000
C2168       C  0.94495235  0.18527583  0.37299184     0.20500
H2169       H  0.97311512  0.07018688  0.36662983     0.10200
C2170       C  0.92475279  0.17445530  0.40138838    -0.15800
C2171       C  0.92665828  0.19160752  0.43380939     0.03200
C2172       C  0.95148958  0.21790489  0.43867932    -0.11100
C2173       C  0.96668179  0.23353758  0.40864538    -0.01100
C2174       C  0.96237897  0.21771045  0.37520179    -0.06300
H2175       H  0.91011841  0.15003738  0.39928211     0.06200
H2176       H  0.48371379  0.25550406  0.41152452     0.09600
Br2177     Br  0.99722280  0.12951633  0.40513691    -0.06000
Br2178     Br  0.91015605  0.11470406  0.25866682    -0.02900
Br2179     Br  0.90235007  0.16557191  0.97142758    -0.00100
Br2180     Br  0.98097465  0.23924076  0.33365515    -0.04400
C2181       C  0.85659548  0.29788471  0.42868182    -0.11800
C2182       C  0.84584824  0.32285729  0.40302486     0.03600
C2183       C  0.85821732  0.31782572  0.36885994    -0.12400
C2184       C  0.87271037  0.28467563  0.35925348     0.18500
C2185       C  0.86814250  0.25511854  0.38178904    -0.09400
C2186       C  0.86148154  0.26202485  0.41774191    -0.02400
H2187       H  0.85784154  0.34000405  0.35034583     0.05000
C2188       C  0.88646014  0.28159266  0.32335782     0.20500
H2189       H  0.86350433  0.24060918  0.43705226     0.10200
C2190       C  0.91664486  0.29898226  0.31633975    -0.15800
C2191       C  0.91967091  0.32006438  0.28583834     0.03200
C2192       C  0.89159678  0.32323914  0.26343244    -0.11100
C2193       C  0.87041814  0.29318977  0.26296896    -0.01100
C2194       C  0.86385777  0.27709709  0.29590749    -0.06300
H2195       H  0.93475274  0.30186391  0.33720764     0.06200
H2196       H  0.85076225  0.29290382  0.24369638     0.09600
Br2197     Br  0.86473725  0.20737230  0.36288421    -0.06000
Br2198     Br  0.83298391  0.37124620  0.41630879    -0.02900
Br2199     Br  0.95646720  0.35261757  0.28448528    -0.00100
Br2200     Br  0.81918754  0.26516179  0.30918889    -0.04400
C2201       C  0.58680782  0.32231509  0.43633032    -0.11800
C2202       C  0.55301303  0.31727739  0.44642793     0.03600
C2203       C  0.53015074  0.34501438  0.44113262    -0.12400
C2204       C  0.53921026  0.37647007  0.42273400     0.18500
C2205       C  0.57292419  0.38427780  0.41842383    -0.09400
C2206       C  0.59653086  0.35794425  0.42696518    -0.02400
H2207       H  0.50417611  0.33991685  0.44726355     0.05000
C2208       C  0.51271695  0.39597841  0.40338024     0.20500
H2209       H  0.62258729  0.36468125  0.42322281     0.10200
C2210       C  0.49438186  0.42089904  0.42363769    -0.15800
C2211       C  0.46333187  0.41030110  0.43719740     0.03200
C2212       C  0.94978037  0.37699563  0.42492356    -0.11100
C2213       C  0.96314279  0.36155645  0.39359230    -0.01100
C2214       C  0.49432094  0.37302491  0.38135097    -0.06300
H2215       H  0.50665306  0.44426293  0.43455318     0.06200
H2216       H  0.95220272  0.33768427  0.38223907     0.09600
Br2217     Br  0.58729014  0.42881302  0.39806218    -0.06000
Br2218     Br  0.53337041  0.27339494  0.46278235    -0.02900
Br2219     Br  0.44229105  0.43922221  0.47346302    -0.00100
Br2220     Br  0.51762635  0.34317603  0.34746429    -0.04400
C2221       C  0.91073643  0.34561853  0.04113407    -0.11800
C2222       C  0.94331017  0.34761940  0.05392328     0.03600
C2223       C  0.45420992  0.37970789  0.06861522    -0.12400
C2224       C  0.92991847  0.40782557  0.07545827     0.18500
C2225       C  0.89574182  0.39886230  0.07473115    -0.09400
C2226       C  0.88614800  0.36753059  0.05695229    -0.02400
H2227       H  0.48073190  0.38464348  0.06877305     0.05000
C2228       C  0.94159917  0.44577536  0.07390818     0.20500
H2229       H  0.86010322  0.36393936  0.05033360     0.10200
C2230       C  0.42380056  0.47206024  0.05632472    -0.15800
C2231       C  0.43786902  0.50599954  0.04998961     0.03200
C2232       C  0.47173727  0.51176709  0.05654708    -0.11100
C2233       C  0.49021093  0.48374772  0.07138675    -0.01100
C2234       C  0.47481358  0.45346734  0.08438941    -0.06300
H2235       H  0.39875247  0.46715243  0.04715926     0.06200
H2236       H  0.51484547  0.48914856  0.08064878     0.09600
Br2237     Br  0.86174598  0.42896770  0.09532982    -0.06000
Br2238     Br  0.47785857  0.31433620  0.03723591    -0.02900
Br2239     Br  0.40875441  0.05066701  0.04097567    -0.00100
Br2240     Br  0.99655077  0.43020617  0.12142879    -0.04400
C2241       C  0.63228244  0.18414339  0.14702281    -0.11800
C2242       C  0.60329368  0.16270919  0.14811533     0.03600
C2243       C  0.57197227  0.17948797  0.14703237    -0.12400
C2244       C  0.56992454  0.21671768  0.14194972     0.18500
C2245       C  0.59858800  0.23557813  0.13144198    -0.09400
C2246       C  0.62964985  0.21867720  0.13241811    -0.02400
H2247       H  0.54963412  0.16408587  0.15255136     0.05000
C2248       C  0.53945062  0.23650724  0.15215634     0.20500
H2249       H  0.65182799  0.23499189  0.12921290     0.10200
C2250       C  0.03595664  0.24860683  0.18745551    -0.15800
C2251       C  0.00984690  0.27191928  0.19728297     0.03200
C2252       C  0.98686887  0.28347141  0.17156595    -0.11100
C2253       C  0.99023829  0.27010227  0.13648784    -0.01100
C2254       C  0.51640767  0.24726665  0.12666175    -0.06300
H2255       H  0.05408420  0.24060355  0.20710368     0.06200
H2256       H  0.97320038  0.27889716  0.11603548     0.09600
Br2257     Br  0.59728325  0.28577528  0.12221917    -0.06000
Br2258     Br  0.60484057  0.11177729  0.15484358    -0.02900
Br2259     Br  0.00671500  0.28603619  0.24598407    -0.00100
Br2260     Br  0.52207262  0.23369248  0.07792491    -0.04400
C2261       C  0.54713338  0.15128796  0.30407871    -0.11800
C2262       C  0.56031365  0.15665861  0.26980255     0.03600
C2263       C  0.57512743  0.18956522  0.26147156    -0.12400
C2264       C  0.57858775  0.21631468  0.28768731     0.18500
C2265       C  0.56070745  0.21326805  0.31968502    -0.09400
C2266       C  0.54441964  0.18099925  0.32738264    -0.02400
H2267       H  0.58910100  0.19164356  0.23675884     0.05000
C2268       C  0.61007938  0.23644982  0.28662801     0.20500
H2269       H  0.53399008  0.17741700  0.35375140     0.10200
C2270       C  0.61557134  0.26177217  0.25955078    -0.15800
C2271       C  0.64764068  0.26446342  0.24448823     0.03200
C2272       C  0.67170949  0.23851639  0.25412177    -0.11100
C2273       C  0.66982321  0.22677112  0.28937494    -0.01100
C2274       C  0.63811160  0.22104905  0.30367994    -0.06300
H2275       H  0.59471759  0.27535622  0.24714587     0.06200
H2276       H  0.69003928  0.21119618  0.30029755     0.09600
Br2277     Br  0.56502455  0.24873640  0.35660202    -0.06000
Br2278     Br  0.56638223  0.11767286  0.23691874    -0.02900
Br2279     Br  0.65443155  0.29362118  0.20335027    -0.00100
Br2280     Br  0.63445928  0.18214978  0.33709535    -0.04400
C2281       C  0.69536028  0.11140842  0.23127654    -0.11800
C2282       C  0.72995861  0.10545713  0.22879755     0.03600
C2283       C  0.74164442  0.06990432  0.23160306    -0.12400
C2284       C  0.71969366  0.04369789  0.21860322     0.18500
C2285       C  0.68799567  0.04702963  0.23514446    -0.09400
C2286       C  0.67435523  0.08196181  0.23852861    -0.02400
H2287       H  0.76788429  0.06528668  0.22785572     0.05000
C2288       C  0.72059631  0.04382082  0.17812205     0.20500
H2289       H  0.64812512  0.08588641  0.24475726     0.10200
C2290       C  0.75041122  0.05512266  0.16148204    -0.15800
C2291       C  0.75032214  0.08567620  0.13964534     0.03200
C2292       C  0.71989568  0.10206816  0.12944167    -0.11100
C2293       C  0.69052557  0.08306675  0.13807251    -0.01100
C2294       C  0.69133103  0.05269903  0.15976156    -0.06300
H2295       H  0.77410666  0.04579241  0.17163354     0.06200
H2296       H  0.66660584  0.09115554  0.12817343     0.09600
Br2297     Br  0.66392356  0.00567039  0.25120849    -0.06000
Br2298     Br  0.75846851  0.14132998  0.20818151    -0.02900
Br2299     Br  0.79266878  0.10448922  0.12716862    -0.00100
Br2300     Br  0.65256547  0.02370181  0.16263085    -0.04400
C2301       C  0.75110376  0.18053701  0.57380294     0.03300
C2302       C  0.74449785  0.15969800  0.60420746    -0.12900
C2303       C  0.72152823  0.13123264  0.60368705     0.00800
C2304       C  0.69944162  0.12932310  0.57552078    -0.11400
C2305       C  0.70242569  0.14897762  0.54419178     0.03200
C2306       C  0.73074516  0.17332143  0.54254635    -0.10800
H2307       H  0.75912444  0.16426794  0.62779552     0.08800
H2308       H  0.67922367  0.11110779  0.57773946     0.06400
H2309       H  0.73513126  0.18658007  0.01768914     0.06200
C2310       C  0.56663072  0.07535123  0.86704710     0.03300
C2311       C  0.56963571  0.10598009  0.84653841    -0.12900
C2312       C  0.54915117  0.11228637  0.81782912     0.00800
C2313       C  0.52908760  0.08472420  0.80479655    -0.11400
C2314       C  0.02637935  0.05058838  0.82142196     0.03200
C2315       C  0.54482484  0.04651538  0.85446837    -0.10800
H2316       H  0.58552416  0.12763512  0.85563459     0.08800
H2317       H  0.01370132  0.09167700  0.78212198     0.06400
H2318       H  0.04084965  0.52234735  0.87063094     0.06200
C2319       C  0.94577066  0.37138059  0.68327825     0.03300
C2320       C  0.91695608  0.36274576  0.66125591    -0.12900
C2321       C  0.90996985  0.32572356  0.65145221     0.00800
C2322       C  0.93152791  0.29947663  0.66560068    -0.11400
C2323       C  0.96250144  0.30806237  0.67950572     0.03200
C2324       C  0.96874199  0.34351230  0.69026029    -0.10800
H2325       H  0.90080214  0.38416125  0.65204007     0.08800
H2326       H  0.92722102  0.27117198  0.66013561     0.06400
H2327       H  0.99256676  0.34991770  0.70209160     0.06200
C2328       C  0.65977614  0.17971178  0.67898060     0.80300
N2329       N  0.66623229  0.20953135  0.69874990    -0.78000
C2330       C  0.68044371  0.20735934  0.73119873     0.82800
N2331       N  0.68902495  0.17420670  0.74351456    -0.77900
C2332       C  0.68238534  0.14418962  0.72424062     0.82900
N2333       N  0.66746586  0.14691186  0.69220823    -0.79600
O2334       O  0.65538299  0.38916202  0.83855162    -0.85200
O2335       O  0.67523064  0.31734241  0.84833880    -0.82300
C2336       C  0.68300608  0.28997887  0.86563996     0.98200
O2337       O  0.71418115  0.28672493  0.87135586    -0.82300
O2338       O  0.73462420  0.30694751  0.80235762    -0.85000
C2339       C  0.74898522  0.31939312  0.77532729     1.02800
O2340       O  0.75104019  0.35433975  0.77395997    -0.77700
O2341       O  0.68622338  0.38616806  0.79074521    -0.77900
C2342       C  0.65827138  0.39315039  0.80516534     1.02700
O2343       O  0.69653399  0.40861639  0.89525059    -0.85200
O2344       O  0.71365347  0.33761125  0.91469868    -0.82300
C2345       C  0.74485820  0.33129021  0.92192441     0.98300
O2346       O  0.76600555  0.33469111  0.89732537    -0.82300
O2347       O  0.79036157  0.34948635  0.82835546    -0.84900
C2348       C  0.79862706  0.38222108  0.82106565     1.02700
O2349       O  0.77713752  0.40663363  0.82609442    -0.77700
O2350       O  0.71238315  0.43582677  0.84539322    -0.77900
C2351       C  0.70127771  0.43725833  0.87810227     1.02700
Cr2352     Cr  0.68766264  0.36248610  0.87260965     1.93700
Cr2353     Cr  0.74981889  0.32249565  0.84928729     1.93200
Cr2354     Cr  0.73075915  0.39358009  0.81177455     1.39100
O2355       O  0.72416280  0.36171484  0.84623934    -1.23000
C2356       C  0.50758612  0.04486686  0.62448414     0.03300
C2357       C  0.48020124  0.55331000  0.60341785    -0.12900
C2358       C  0.48449546  0.54629279  0.56752717     0.00800
C2359       C  0.51514679  0.05611208  0.55211125    -0.11400
C2360       C  0.54214409  0.06698803  0.57370815     0.03200
C2361       C  0.53949713  0.05676244  0.61071967    -0.10800
H2362       H  0.45532290  0.54925675  0.61413268     0.08800
H2363       H  0.51888810  0.05209835  0.52387498     0.06400
H2364       H  0.56148515  0.05574444  0.62710029     0.06200
C2365       C  0.62684891  0.22961821  0.92852227     0.03300
C2366       C  0.60638667  0.25833263  0.94050003    -0.12900
C2367       C  0.60674363  0.29203903  0.92343670     0.00800
C2368       C  0.62870091  0.29655054  0.89492362    -0.11400
C2369       C  0.65502560  0.27285342  0.88746005     0.03200
C2370       C  0.65277266  0.23780192  0.90272403    -0.10800
H2371       H  0.59042558  0.25384779  0.96313073     0.08800
H2372       H  0.62614121  0.32060028  0.87909749     0.06400
H2373       H  0.67132566  0.21767179  0.89560862     0.06200
C2374       C  0.83101271  0.38858752  0.79986547     0.03300
C2375       C  0.85039138  0.42115697  0.79463344    -0.12900
C2376       C  0.88124157  0.41999013  0.77395534     0.00800
C2377       C  0.89089132  0.38629118  0.76002677    -0.11400
C2378       C  0.87382913  0.35470089  0.76688352     0.03200
C2379       C  0.84231662  0.35750299  0.78250480    -0.10800
H2380       H  0.84186697  0.44612828  0.80628064     0.08800
H2381       H  0.91294862  0.38362753  0.74451906     0.06400
H2382       H  0.82717140  0.33367562  0.78388428     0.06200
C2383       C  0.90317064  0.33909070  0.50172835     0.80300
N2384       N  0.92501085  0.35895341  0.48213582    -0.78000
C2385       C  0.92601881  0.36631951  0.94743825     0.82800
N2386       N  0.90250365  0.34653931  0.93189061    -0.77900
C2387       C  0.88102352  0.32629113  0.95130126     0.82900
N2388       N  0.88372778  0.32446298  0.98699436    -0.79600
O2389       O  0.67185891  0.14178540  0.98490415    -0.85200
O2390       O  0.65693504  0.07224686  0.96557178    -0.82300
C2391       C  0.64517537  0.54253944  0.95733732     0.98200
O2392       O  0.61303670  0.53902853  0.95990587    -0.82300
O2393       O  0.58645719  0.06374055  0.53041112    -0.85000
C2394       C  0.57236661  0.08265660  0.55406273     1.02800
O2395       O  0.57647706  0.11679438  0.55207535    -0.77700
O2396       O  0.64453436  0.13726586  0.53432315    -0.77900
C2397       C  0.67230778  0.14258895  0.51887264     1.02700
O2398       O  0.62427329  0.16442182  0.92771687    -0.85200
O2399       O  0.61163676  0.09179430  0.90799410    -0.82300
C2400       C  0.58113064  0.08128667  0.90381486     0.98300
O2401       O  0.56130560  0.08224852  0.92986454    -0.82300
O2402       O  0.53472787  0.11075719  0.49710041    -0.84900
C2403       C  0.53196337  0.14560310  0.50050357     1.02700
O2404       O  0.55764200  0.16447168  0.49734985    -0.77700
O2405       O  0.61808019  0.19011132  0.97974494    -0.77900
C2406       C  0.62246735  0.19281339  0.94606263     1.02700
Cr2407     Cr  0.63810059  0.11743841  0.94887377     1.93700
Cr2408     Cr  0.57591741  0.07739374  0.97922248     1.93200
Cr2409     Cr  0.60071403  0.14845711  0.51377945     1.39100
O2410       O  0.60372807  0.11528815  0.97918829    -1.23000
C2411       C  0.49973503  0.16783615  0.50320796     0.03300
C2412       C  0.47928285  0.17583823  0.53445507    -0.12900
C2413       C  0.45565584  0.20591444  0.53428155     0.00800
C2414       C  0.95381554  0.22654097  0.50301299    -0.11400
C2415       C  0.46740435  0.21526639  0.96922929     0.03200
C2416       C  0.49269120  0.18942596  0.97061000    -0.10800
H2417       H  0.48169000  0.15940701  0.55798419     0.08800
H2418       H  0.93488545  0.24744947  0.50056248     0.05200
H2419       H  0.50725235  0.18447534  0.94671410     0.06200
C2420       C  0.80608539  0.26446880  0.70484066     0.03300
C2421       C  0.80278209  0.23086172  0.72039638    -0.12900
C2422       C  0.78434340  0.22577876  0.75122544     0.00800
C2423       C  0.76336769  0.25393437  0.76348189    -0.11400
C2424       C  0.76600106  0.29017921  0.75080423     0.03200
C2425       C  0.78765704  0.29493867  0.72011918    -0.10800
H2426       H  0.81537875  0.20782382  0.70835824     0.08800
H2427       H  0.74838671  0.24816978  0.78677935     0.06400
H2428       H  0.79040465  0.32144168  0.70861768     0.06200
C2429       C  0.69939068  0.47167517  0.90007483     0.03300
C2430       C  0.66961706  0.48822590  0.91602564    -0.12900
C2431       C  0.67215086  0.51499941  0.94409328     0.00800
C2432       C  0.70503051  0.52191412  0.95643033    -0.11400
C2433       C  0.73348227  0.50607224  0.94085680     0.03200
C2434       C  0.73035657  0.48202652  0.91277170    -0.10800
H2435       H  0.64528656  0.48107438  0.90621440     0.08800
H2436       H  0.70899550  0.54118444  0.97762951     0.06400
H2437       H  0.75273531  0.46917477  0.90215188     0.06200
C2438       C  0.92699052  0.04737683  0.81896300     0.80300
N2439       N  0.93623708  0.02196475  0.84263174    -0.78000
C2440       C  0.91552208  0.99516087  0.85230361     0.82800
N2441       N  0.88518928  0.99274319  0.83643633    -0.77900
C2442       C  0.87652533  0.01620226  0.81063277     0.82900
N2443       N  0.89712067  0.04416525  0.80303755    -0.79600
O2444       O  0.92586600  0.21473050  0.59246771    -0.85200
O2445       O  0.89978178  0.28345469  0.60593436    -0.82300
C2446       C  0.88719843  0.30944636  0.62247791     0.98200
O2447       O  0.85526942  0.31170498  0.62010759    -0.82300
O2448       O  0.83509999  0.28878680  0.54596178    -0.85000
C2449       C  0.82473543  0.26914902  0.01933397     1.02800
O2450       O  0.83315050  0.23452972  0.52398653    -0.77700
O2451       O  0.89830153  0.21834018  0.54310461    -0.77900
C2452       C  0.92558559  0.21257803  0.55857207     1.02700
O2453       O  0.88150260  0.18677970  0.64623524    -0.85200
O2454       O  0.85675775  0.25691236  0.66717490    -0.82300
C2455       C  0.82481219  0.26273872  0.66987064     0.98300
O2456       O  0.80705707  0.26096722  0.64279943    -0.82300
O2457       O  0.78572614  0.23684808  0.57783209    -0.84900
C2458       C  0.78401771  0.20197709  0.57531415     1.02700
O2459       O  0.81078340  0.18369145  0.57622950    -0.77700
O2460       O  0.87696312  0.16412154  0.59246985    -0.77900
C2461       C  0.88323388  0.15981959  0.62552915     1.02700
Cr2462     Cr  0.88839136  0.23622172  0.62613637     1.93700
Cr2463     Cr  0.82388667  0.27184055  0.59568607     1.93200
Cr2464     Cr  0.85500776  0.20283765  0.56168058     1.39100
O2465       O  0.85468587  0.23573379  0.59564120    -1.23000
C2466       C  0.89019164  0.12171452  0.63842697     0.03300
C2467       C  0.91258136  0.11055441  0.66599875    -0.12900
C2468       C  0.91597309  0.07296341  0.67466213     0.00800
C2469       C  0.89611974  0.04793064  0.65563053    -0.11400
C2470       C  0.87273832  0.05862690  0.63017723     0.03200
C2471       C  0.87232075  0.09510989  0.62060083    -0.10800
H2472       H  0.92690814  0.13047923  0.68020924     0.08800
H2473       H  0.89948461  0.01948464  0.66041184     0.06400
H2474       H  0.85566129  0.10405470  0.60008376     0.06200
C2475       C  0.58194612  0.43874002  0.75473717     0.03300
C2476       C  0.58633016  0.41863267  0.72384261    -0.12900
C2477       C  0.61042019  0.39168740  0.72040694     0.00800
C2478       C  0.63150602  0.38371754  0.74805946    -0.11400
C2479       C  0.62957537  0.40249825  0.78039559     0.03200
C2480       C  0.60360840  0.42999440  0.78436419    -0.10800
H2481       H  0.56921636  0.42271222  0.70206806     0.08800
H2482       H  0.65030907  0.36298780  0.74377883     0.06400
H2483       H  0.60050872  0.44409276  0.80938477     0.06200
C2484       C  0.75499960  0.31241518  0.95645530     0.03300
C2485       C  0.72967695  0.29327568  0.97337990    -0.12900
C2486       C  0.73723380  0.26860419  0.00006826     0.00800
C2487       C  0.76900959  0.25615207  0.00292895    -0.11400
C2488       C  0.79538286  0.27874820  0.99548518     0.03200
C2489       C  0.78806655  0.30883785  0.97206567    -0.10800
H2490       H  0.70390939  0.29706414  0.96568146     0.08800
H2491       H  0.77259688  0.23093824  0.01589984     0.06400
H2492       H  0.80640544  0.32913782  0.96716784     0.06200
C2493       C  0.59928013  0.46767666  0.52116878     0.80300
N2494       N  0.62694628  0.98299150  0.53367737    -0.78000
C2495       C  0.65793311  0.96924176  0.52805719     0.82800
N2496       N  0.66093826  0.44020952  0.50984350    -0.77900
C2497       C  0.63445803  0.42356766  0.49535102     0.82900
N2498       N  0.60395452  0.43869721  0.49952295    -0.79600
O2499       O  0.99995617  0.48878072  0.80438864    -0.85200
O2500       O  0.92998329  0.45939124  0.78344407    -0.82300
C2501       C  0.90557110  0.45029986  0.76372053     0.98200
O2502       O  0.90742838  0.45823417  0.73100146    -0.82300
O2503       O  0.92537782  0.02972537  0.71961696    -0.85000
C2504       C  0.93739473  0.05630584  0.70386375     1.02800
O2505       O  0.96896639  0.06042591  0.70678961    -0.77700
O2506       O  0.98734039  0.03691890  0.77593885    -0.77900
C2507       C  0.00289736  0.02379748  0.80149240     1.02700
O2508       O  0.02352855  0.43846506  0.75342125    -0.85200
O2509       O  0.96239398  0.41183384  0.73178818    -0.82300
C2510       C  0.95397814  0.40853275  0.69880815     0.98300
O2511       O  0.95222234  0.43630899  0.67954266    -0.82300
O2512       O  0.96998547  0.00915091  0.66102438    -0.84900
C2513       C  0.00004259  0.02088175  0.65648488     1.02700
O2514       O  0.02113429  0.01538752  0.68050727    -0.77700
O2515       O  0.54467462  0.49296945  0.74889649    -0.77900
C2516       C  0.04860822  0.45862443  0.75447410     1.02700
Cr2517     Cr  0.97806978  0.45290075  0.76570698     1.93700
Cr2518     Cr  0.94172361  0.48409264  0.69999692     1.93200
Cr2519     Cr  0.00349677  0.02332404  0.72913403     1.39100
O2520       O  0.97564443  0.48511974  0.73028762    -1.23000
C2521       C  0.63680833  0.38395593  0.49468023    -0.11800
C2522       C  0.66863871  0.36838178  0.49606017     0.03600
C2523       C  0.67370737  0.33840569  0.51677057    -0.12400
C2524       C  0.64462669  0.31763267  0.02786565     0.18500
C2525       C  0.61254975  0.33067372  0.02043099    -0.09400
C2526       C  0.60905393  0.36422976  0.00384521    -0.02400
H2527       H  0.69918017  0.33074995  0.52170224     0.05000
C2528       C  0.65159511  0.28250021  0.04501936     0.20500
H2529       H  0.58432213  0.37550454  0.00147536     0.10200
C2530       C  0.65245098  0.25377846  0.02044289    -0.15800
C2531       C  0.68382179  0.24081671  0.00923071     0.03200
C2532       C  0.71169960  0.25544233  0.02453547    -0.11100
C2533       C  0.70914817  0.27107461  0.05836082    -0.01100
C2534       C  0.67783135  0.28349059  0.06990716    -0.06300
H2535       H  0.63109728  0.24915402  0.00424194     0.06200
H2536       H  0.73126108  0.28100077  0.07140025     0.09600
Br2537     Br  0.57338886  0.30572220  0.03533338    -0.06000
Br2538     Br  0.70711213  0.39016716  0.47523576    -0.02900
Br2539     Br  0.69326628  0.21347188  0.96715425    -0.00100
Br2540     Br  0.67760142  0.31849581  0.10744975    -0.04400
C2541       C  0.56803327  0.46763610  0.54273773    -0.11800
C2542       C  0.55010976  0.43500369  0.54126556     0.03600
C2543       C  0.55792955  0.40838569  0.56586503    -0.12400
C2544       C  0.57432897  0.41855372  0.59674056     0.18500
C2545       C  0.57650086  0.45576158  0.60457914    -0.09400
C2546       C  0.57286848  0.48066806  0.57725867    -0.02400
H2547       H  0.55205681  0.38055432  0.56041170     0.05000
C2548       C  0.59156558  0.39211390  0.61908491     0.20500
H2549       H  0.58194425  0.00847361  0.57851032     0.10200
C2550       C  0.62479788  0.39956416  0.62787936    -0.15800
C2551       C  0.63632642  0.39099861  0.66155271     0.03200
C2552       C  0.61419943  0.37459550  0.68565209    -0.11100
C2553       C  0.58559297  0.35764107  0.67269872    -0.01100
C2554       C  0.57385089  0.36672988  0.63919165    -0.06300
H2555       H  0.63952934  0.41735757  0.61126839     0.06200
H2556       H  0.56948958  0.34273033  0.69059647     0.09600
Br2557     Br  0.58512455  0.47337890  0.65102339    -0.06000
Br2558     Br  0.52529208  0.42161179  0.50129233    -0.02900
Br2559     Br  0.67750124  0.41210288  0.67662460    -0.00100
Br2560     Br  0.53319621  0.34570934  0.62364039    -0.04400
C2561       C  0.68654147  0.97955491  0.55041011    -0.11800
C2562       C  0.69347764  0.01535702  0.55864463     0.03600
C2563       C  0.72401915  0.02429622  0.57405203    -0.12400
C2564       C  0.74791271  0.99758365  0.58224915     0.18500
C2565       C  0.73842898  0.96109104  0.57900804    -0.09400
C2566       C  0.70821455  0.95250424  0.56278309    -0.02400
H2567       H  0.72972188  0.05236879  0.57796454     0.05000
C2568       C  0.78262780  0.00830702  0.59202844     0.20500
H2569       H  0.70167886  0.42489643  0.56053125     0.10200
C2570       C  0.79708663  0.99563515  0.62346436    -0.15800
C2571       C  0.82817233  0.00823076  0.63524519     0.03200
C2572       C  0.84628528  0.03393505  0.61485878    -0.11100
C2573       C  0.83333869  0.04241894  0.58112470    -0.01100
C2574       C  0.80146407  0.03205757  0.57078115    -0.06300
H2575       H  0.78298881  0.97772361  0.64047937     0.06200
H2576       H  0.84614876  0.06097967  0.56387093     0.09600
Br2577     Br  0.76648974  0.92126295  0.59223591    -0.06000
Br2578     Br  0.66250446  0.05225593  0.54690920    -0.02900
Br2579     Br  0.84170261  0.98994775  0.68039934    -0.00100
Br2580     Br  0.78411696  0.05642484  0.52998303    -0.04400
C2581       C  0.76775643  0.51482515  0.95222201    -0.11800
C2582       C  0.78647594  0.49020620  0.97238239     0.03600
C2583       C  0.82104991  0.49294129  0.97412372    -0.12400
C2584       C  0.83817003  0.51666510  0.95177268     0.18500
C2585       C  0.81955157  0.54349590  0.93362268    -0.09400
C2586       C  0.78452661  0.54290030  0.93499462    -0.02400
H2587       H  0.83486729  0.47224175  0.98812539     0.05000
C2588       C  0.87079735  0.50345053  0.93786872     0.20500
H2589       H  0.77052051  0.56150954  0.91865276     0.10200
C2590       C  0.87147712  0.46858594  0.92249701    -0.15800
C2591       C  0.89632254  0.45923525  0.89791279     0.03200
C2592       C  0.91874377  0.98135032  0.88864745    -0.11100
C2593       C  0.92527070  0.00855306  0.91360764    -0.01100
C2594       C  0.89930482  0.02009632  0.93591628    -0.06300
H2595       H  0.85054853  0.45062292  0.92582173     0.06200
H2596       H  0.94592697  0.02675153  0.90922411     0.09600
Br2597     Br  0.83921461  0.07287503  0.90165562    -0.06000
Br2598     Br  0.76754470  0.44844092  0.99271019    -0.02900
Br2599     Br  0.89224696  0.41667025  0.86959687    -0.00100
Br2600     Br  0.90352801  0.06715326  0.95610583    -0.04400
C2601       C  0.79038449  0.19202425  0.77225819    -0.11800
C2602       C  0.82290620  0.17675331  0.77544022     0.03600
C2603       C  0.82664621  0.14244710  0.78931566    -0.12400
C2604       C  0.79906372  0.12078864  0.79588353     0.18500
C2605       C  0.76772049  0.13770025  0.80025010    -0.09400
C2606       C  0.76370777  0.17349621  0.78856160    -0.02400
H2607       H  0.85125016  0.13079392  0.79094749     0.05000
C2608       C  0.80470203  0.08131117  0.79226859     0.20500
H2609       H  0.73919108  0.18509200  0.78870538     0.10200
C2610       C  0.79881973  0.05786013  0.82084706    -0.15800
C2611       C  0.81652642  0.02512253  0.82245849     0.03200
C2612       C  0.84210164  0.01834944  0.79749004    -0.11100
C2613       C  0.83970154  0.03503170  0.76466672    -0.01100
C2614       C  0.82294443  0.06773808  0.76236452    -0.06300
H2615       H  0.78326033  0.06604469  0.84311974     0.06200
H2616       H  0.85785633  0.02832503  0.74417896     0.09600
Br2617     Br  0.72984988  0.11325917  0.82001816    -0.06000
Br2618     Br  0.86395834  0.19817840  0.75928527    -0.02900
Br2619     Br  0.80804841  0.99186415  0.86001981    -0.00100
Br2620     Br  0.83137247  0.09417900  0.71948877    -0.04400
C2621       C  0.94324114  0.08305618  0.82142652    -0.11800
C2622       C  0.93282848  0.11370873  0.80211939     0.03600
C2623       C  0.93846584  0.14815484  0.81577306    -0.12400
C2624       C  0.95604543  0.15214538  0.84725163     0.18500
C2625       C  0.97274640  0.12233320  0.86166696    -0.09400
C2626       C  0.96489215  0.08826385  0.85001035    -0.02400
H2627       H  0.92624890  0.17127202  0.80399113     0.05000
C2628       C  0.94567493  0.18016800  0.87222974     0.20500
H2629       H  0.97414880  0.06586434  0.86544154     0.10200
C2630       C  0.92625757  0.16843252  0.90089621    -0.15800
C2631       C  0.92623486  0.18719363  0.93256115     0.03200
C2632       C  0.94859626  0.21609857  0.93650991    -0.11100
C2633       C  0.96272685  0.23190512  0.90602395    -0.01100
C2634       C  0.96055222  0.21413689  0.87329893    -0.06300
H2635       H  0.91337622  0.14282921  0.89950532     0.06200
H2636       H  0.47823184  0.25503187  0.90802752     0.09600
Br2637     Br  0.99881010  0.12540366  0.90380847    -0.06000
Br2638     Br  0.90915275  0.11128988  0.75892623    -0.02900
Br2639     Br  0.90151117  0.17024233  0.47189103    -0.00100
Br2640     Br  0.97985578  0.23480118  0.83164821    -0.04400
C2641       C  0.85499875  0.30814118  0.93198746    -0.11800
C2642       C  0.84343742  0.32946560  0.90396979     0.03600
C2643       C  0.85650725  0.32125553  0.87071159    -0.12400
C2644       C  0.87177965  0.28757325  0.86485684     0.18500
C2645       C  0.86767552  0.26067945  0.89053489    -0.09400
C2646       C  0.86062218  0.27143514  0.92538039    -0.02400
H2647       H  0.85600181  0.34130283  0.85009845     0.05000
C2648       C  0.88620378  0.28091514  0.82975803     0.20500
H2649       H  0.86331892  0.25252362  0.94701280     0.10200
C2650       C  0.91641341  0.29785527  0.82173666    -0.15800
C2651       C  0.91949714  0.31676825  0.78985369     0.03200
C2652       C  0.89141267  0.31878790  0.76739485    -0.11100
C2653       C  0.87011637  0.28877402  0.76882337    -0.01100
C2654       C  0.86389501  0.27411910  0.80250604    -0.06300
H2655       H  0.93458248  0.30201705  0.84240489     0.06200
H2656       H  0.85046989  0.28708237  0.74964290     0.09600
Br2657     Br  0.86483844  0.21116851  0.87745239    -0.06000
Br2658     Br  0.82684272  0.37748427  0.91296558    -0.02900
Br2659     Br  0.95691937  0.34805018  0.78533414    -0.00100
Br2660     Br  0.81974201  0.26023288  0.81613858    -0.04400
C2661       C  0.58442584  0.32355871  0.93233383    -0.11800
C2662       C  0.55071708  0.32012214  0.94315582     0.03600
C2663       C  0.52928802  0.34948778  0.93985243    -0.12400
C2664       C  0.53946306  0.38082474  0.92185495     0.18500
C2665       C  0.57338754  0.38668706  0.91642231    -0.09400
C2666       C  0.59581674  0.35874514  0.92349634    -0.02400
H2667       H  0.50321325  0.34574855  0.94654751     0.05000
C2668       C  0.51353267  0.40168921  0.90307214     0.20500
H2669       H  0.62209381  0.36376880  0.91872967     0.10200
C2670       C  0.49681401  0.42765918  0.92359304    -0.15800
C2671       C  0.46539520  0.41892029  0.93744585     0.03200
C2672       C  0.94992014  0.38631655  0.92533309    -0.11100
C2673       C  0.96216628  0.37014128  0.89385309    -0.01100
C2674       C  0.49380988  0.37971601  0.88135187    -0.06300
H2675       H  0.51055099  0.44987403  0.93485240     0.06200
H2676       H  0.94982460  0.34697784  0.88263130     0.09600
Br2677     Br  0.58932585  0.43070954  0.89630290    -0.06000
Br2678     Br  0.52930271  0.27629654  0.95686048    -0.02900
Br2679     Br  0.44636078  0.44814706  0.97439998    -0.00100
Br2680     Br  0.51570765  0.34734173  0.84862069    -0.04400
C2681       C  0.90346764  0.34448924  0.54005778    -0.11800
C2682       C  0.93563136  0.34550722  0.55418335     0.03600
C2683       C  0.44684281  0.37812007  0.56777152    -0.12400
C2684       C  0.92446572  0.40703135  0.57349881     0.18500
C2685       C  0.88991817  0.39961658  0.57172630    -0.09400
C2686       C  0.87947600  0.36859334  0.55372545    -0.02400
H2687       H  0.47352406  0.38160792  0.56783457     0.05000
C2688       C  0.93799087  0.44448504  0.57302803     0.20500
H2689       H  0.85358105  0.36625988  0.54601163     0.10200
C2690       C  0.42083098  0.47291023  0.55639569    -0.15800
C2691       C  0.43599514  0.50664756  0.55181628     0.03200
C2692       C  0.47003643  0.51086031  0.55873696    -0.11100
C2693       C  0.48721819  0.48178016  0.57336153    -0.01100
C2694       C  0.47096048  0.45105868  0.58417362    -0.06300
H2695       H  0.39566091  0.46954322  0.54696614     0.06200
H2696       H  0.51175117  0.48601962  0.58348180     0.09600
Br2697     Br  0.85660635  0.43093504  0.59182310    -0.06000
Br2698     Br  0.46867842  0.31039125  0.54094958    -0.02900
Br2699     Br  0.40966771  0.04591262  0.53979984    -0.00100
Br2700     Br  0.99339429  0.42365807  0.61908504    -0.04400
C2701       C  0.63657424  0.18369753  0.64905064    -0.11800
C2702       C  0.60694313  0.16329355  0.64933284     0.03600
C2703       C  0.57620247  0.18106535  0.64760639    -0.12400
C2704       C  0.57529747  0.21830180  0.64269969     0.18500
C2705       C  0.60469543  0.23625350  0.63294279    -0.09400
C2706       C  0.63524115  0.21827553  0.63436642    -0.02400
H2707       H  0.55333103  0.16637935  0.65254016     0.05000
C2708       C  0.54504523  0.23859690  0.65256469     0.20500
H2709       H  0.65795062  0.23382774  0.63164399     0.10200
C2710       C  0.03991643  0.24841002  0.68834729    -0.15800
C2711       C  0.01277648  0.27025140  0.69829172     0.03200
C2712       C  0.99019832  0.28209993  0.67232799    -0.11100
C2713       C  0.99452449  0.26984859  0.63701588    -0.01100
C2714       C  0.52174395  0.24870865  0.62707287    -0.06300
H2715       H  0.05756868  0.23990097  0.70827804     0.06200
H2716       H  0.97745876  0.27849815  0.61655113     0.09600
Br2717     Br  0.60514292  0.28645541  0.62432676    -0.06000
Br2718     Br  0.60648826  0.11241643  0.65552286    -0.02900
Br2719     Br  0.00693296  0.28095913  0.74755493    -0.00100
Br2720     Br  0.52738525  0.23516372  0.57831192    -0.04400
C2721       C  0.54937223  0.14914432  0.80293408    -0.11800
C2722       C  0.56255921  0.15533510  0.76888213     0.03600
C2723       C  0.57885561  0.18775352  0.76190466    -0.12400
C2724       C  0.58219267  0.21380244  0.78882380     0.18500
C2725       C  0.56333768  0.21047651  0.82014931    -0.09400
C2726       C  0.54669255  0.17826423  0.82691131    -0.02400
H2727       H  0.59308453  0.19023092  0.73740170     0.05000
C2728       C  0.61339312  0.23449608  0.78855170     0.20500
H2729       H  0.53578290  0.17423586  0.85299090     0.10200
C2730       C  0.61881080  0.26017273  0.76178071    -0.15800
C2731       C  0.65097581  0.26344499  0.74706027     0.03200
C2732       C  0.67524383  0.23776192  0.75687894    -0.11100
C2733       C  0.67327865  0.22661385  0.79232532    -0.01100
C2734       C  0.64149687  0.21958449  0.80588786    -0.06300
H2735       H  0.59790179  0.27351125  0.74924622     0.06200
H2736       H  0.69373606  0.21196274  0.80379011     0.09600
Br2737     Br  0.56518577  0.24613765  0.85689680    -0.06000
Br2738     Br  0.56494817  0.11791404  0.73400246    -0.02900
Br2739     Br  0.65755688  0.29287813  0.70605083    -0.00100
Br2740     Br  0.63831241  0.17962375  0.83805818    -0.04400
C2741       C  0.69513099  0.10936232  0.73544730    -0.11800
C2742       C  0.72959311  0.10258734  0.73257369     0.03600
C2743       C  0.74052095  0.06666935  0.73439519    -0.12400
C2744       C  0.71799255  0.04154740  0.72046378     0.18500
C2745       C  0.68646936  0.04509167  0.73733900    -0.09400
C2746       C  0.67354987  0.08022201  0.74194743    -0.02400
H2747       H  0.76670387  0.06147552  0.73062951     0.05000
C2748       C  0.71888374  0.04356042  0.68001325     0.20500
H2749       H  0.64741631  0.08457226  0.74838671     0.10200
C2750       C  0.74935249  0.05353464  0.66377189    -0.15800
C2751       C  0.75075565  0.08379395  0.64159996     0.03200
C2752       C  0.72119712  0.10102125  0.63031276    -0.11100
C2753       C  0.69095204  0.08395779  0.63920137    -0.01100
C2754       C  0.68999567  0.05426102  0.66175645    -0.06300
H2755       H  0.77255762  0.04321813  0.67428677     0.06200
H2756       H  0.66763923  0.09341359  0.62882271     0.09600
Br2757     Br  0.66195621  0.00381603  0.75284977    -0.06000
Br2758     Br  0.75845549  0.13808810  0.71187186    -0.02900
Br2759     Br  0.79374812  0.10205496  0.63113539    -0.00100
Br2760     Br  0.64902523  0.02901418  0.66595538    -0.04400
C2761       C  0.74865664  0.68219027  0.07329136     0.03300
C2762       C  0.74226361  0.66089091  0.10342397    -0.12900
C2763       C  0.71911311  0.63254577  0.10280068     0.00800
C2764       C  0.69592677  0.63202943  0.07555342    -0.11400
C2765       C  0.69935220  0.65158571  0.04415391     0.03200
C2766       C  0.72794852  0.67539450  0.04226534    -0.10800
H2767       H  0.75745050  0.66474184  0.12670823     0.08800
H2768       H  0.67498101  0.61459856  0.07805222     0.06400
H2769       H  0.73729784  0.68615331  0.51787858     0.06200
C2770       C  0.56403808  0.57826749  0.36820448     0.03300
C2771       C  0.56595955  0.60985839  0.34888223    -0.12900
C2772       C  0.54578705  0.61635109  0.31986699     0.00800
C2773       C  0.52609968  0.58867617  0.30628821    -0.11400
C2774       C  0.02425417  0.55380379  0.32183862     0.03200
C2775       C  0.54286547  0.54926983  0.35468425    -0.10800
H2776       H  0.58147064  0.63154311  0.35865314     0.08800
H2777       H  0.01118597  0.59560876  0.28343088     0.06400
H2778       H  0.04024643  0.02329580  0.37008038     0.06200
C2779       C  0.94360518  0.87311342  0.18172110     0.03300
C2780       C  0.91509770  0.86516169  0.15882453    -0.12900
C2781       C  0.90724514  0.82823084  0.14902013     0.00800
C2782       C  0.92764712  0.80148283  0.16396918    -0.11400
C2783       C  0.95865557  0.80915239  0.17827651     0.03200
C2784       C  0.96561932  0.84444925  0.18926657    -0.10800
H2785       H  0.89980368  0.88701259  0.14899131     0.08800
H2786       H  0.92264434  0.77331656  0.15857048     0.06400
H2787       H  0.98937078  0.85012572  0.20158345     0.06200
C2788       C  0.65761050  0.68217081  0.17459836     0.80300
N2789       N  0.66265761  0.71211939  0.19461397    -0.78000
C2790       C  0.67834301  0.71069748  0.22630947     0.82800
N2791       N  0.68976533  0.67819288  0.23763745    -0.77900
C2792       C  0.68468873  0.64805538  0.21800945     0.82900
N2793       N  0.66826573  0.64995011  0.18679562    -0.79600
O2794       O  0.65436456  0.88527667  0.33911144    -0.85200
O2795       O  0.67714898  0.81381770  0.34875533    -0.82300
C2796       C  0.68569371  0.78755033  0.36723204     0.98200
O2797       O  0.71703086  0.78551676  0.37249796    -0.82300
O2798       O  0.73662936  0.80624224  0.30290894    -0.85000
C2799       C  0.74889942  0.81970359  0.27510675     1.02800
O2800       O  0.75007994  0.85472635  0.27400481    -0.77700
O2801       O  0.68532212  0.88628931  0.29132116    -0.77900
C2802       C  0.65716056  0.89154027  0.30599520     1.02700
O2803       O  0.69485543  0.90603778  0.39576491    -0.85200
O2804       O  0.71516757  0.83612449  0.41533602    -0.82300
C2805       C  0.74661137  0.83088247  0.42261781     0.98300
O2806       O  0.76758747  0.83531210  0.39794063    -0.82300
O2807       O  0.79110632  0.85027005  0.32836422    -0.84900
C2808       C  0.79867976  0.88316683  0.32113729     1.02700
O2809       O  0.77663265  0.90697754  0.32627839    -0.77700
O2810       O  0.71164191  0.93455602  0.34694315    -0.77900
C2811       C  0.69995800  0.93505007  0.37941497     1.02700
Cr2812     Cr  0.68784507  0.85970461  0.37301898     1.93700
Cr2813     Cr  0.75141960  0.82240895  0.34979888     1.93200
Cr2814     Cr  0.73010075  0.89324547  0.31249013     1.39100
O2815       O  0.72436083  0.86066347  0.34662759    -1.23000
C2816       C  0.50769905  0.54644626  0.12253667     0.03300
C2817       C  0.47965020  0.05420035  0.10207775    -0.12900
C2818       C  0.48384576  0.04872197  0.06588414     0.00800
C2819       C  0.51509495  0.55822505  0.05003406    -0.11400
C2820       C  0.54215433  0.56846549  0.07165131     0.03200
C2821       C  0.53963333  0.55812956  0.10864227    -0.10800
H2822       H  0.45480169  0.04966829  0.11264853     0.08800
H2823       H  0.51882604  0.55417653  0.02180689     0.06400
H2824       H  0.56164534  0.55716546  0.12498855     0.06200
C2825       C  0.62888299  0.72937641  0.43173506     0.03300
C2826       C  0.61014257  0.75868336  0.44523911    -0.12900
C2827       C  0.61149594  0.79299619  0.42945115     0.00800
C2828       C  0.63522721  0.79832018  0.40263020    -0.11400
C2829       C  0.65886612  0.77250662  0.39205906     0.03200
C2830       C  0.65430265  0.73678644  0.40518327    -0.10800
H2831       H  0.59462108  0.75408514  0.46812022     0.08800
H2832       H  0.63523745  0.82369557  0.38893235     0.06400
H2833       H  0.67099060  0.71550776  0.39624890     0.06200
C2834       C  0.83103711  0.89034754  0.29997362     0.03300
C2835       C  0.84999863  0.92326398  0.29473563    -0.12900
C2836       C  0.88062020  0.92269497  0.27352295     0.00800
C2837       C  0.89041717  0.88931729  0.25919928    -0.11400
C2838       C  0.87381627  0.85757183  0.26576447     0.03200
C2839       C  0.84268989  0.85960743  0.28233021    -0.10800
H2840       H  0.84130399  0.94797951  0.30671663     0.08800
H2841       H  0.91239816  0.88687933  0.24351766     0.06400
H2842       H  0.82785284  0.83561287  0.28349255     0.06200
C2843       C  0.90829168  0.83737929  0.00098064     0.80300
N2844       N  0.92957835  0.85718247  0.98068760    -0.78000
C2845       C  0.92767004  0.85285962  0.44549419     0.82800
N2846       N  0.90698305  0.82947439  0.43018171    -0.77900
C2847       C  0.88371374  0.81153388  0.44955018     0.82900
N2848       N  0.88231956  0.81544337  0.48540335    -0.79600
O2849       O  0.67292562  0.64077216  0.48480644    -0.85200
O2850       O  0.65706638  0.57148247  0.46455869    -0.82300
C2851       C  0.64444625  0.04056282  0.45797822     0.98200
O2852       O  0.61231892  0.03764071  0.46160191    -0.82300
O2853       O  0.58658625  0.56568145  0.02869599    -0.85000
C2854       C  0.57187405  0.58462444  0.05192125     1.02800
O2855       O  0.57445022  0.61884882  0.04898965    -0.77700
O2856       O  0.64176874  0.64034934  0.03296784    -0.77900
C2857       C  0.66989467  0.64530453  0.01827669     1.02700
O2858       O  0.62388975  0.66447802  0.42957598    -0.85200
O2859       O  0.61037894  0.59258472  0.40850888    -0.82300
C2860       C  0.57965261  0.58263265  0.40477918     0.98300
O2861       O  0.56052914  0.58286019  0.43140397    -0.82300
O2862       O  0.53371647  0.61125876  0.99416370    -0.84900
C2863       C  0.53022638  0.64617072  0.99648049     1.02700
O2864       O  0.55564380  0.66531373  0.99274188    -0.77700
O2865       O  0.61977617  0.68910061  0.48233045    -0.77900
C2866       C  0.62346360  0.69243410  0.44858124     1.02700
Cr2867     Cr  0.63797968  0.61709026  0.44933755     1.93700
Cr2868     Cr  0.57603054  0.57692778  0.48045346     1.93200
Cr2869     Cr  0.59852550  0.65043274  0.01082189     1.39100
O2870       O  0.60433653  0.61447291  0.48062425    -1.23000
C2871       C  0.49761180  0.66815280  0.99900147     0.03300
C2872       C  0.47691494  0.67621629  0.03014324    -0.12900
C2873       C  0.45334401  0.70648641  0.03001925     0.00800
C2874       C  0.95122131  0.72704117  0.99876759    -0.11400
C2875       C  0.46974544  0.71605289  0.47300718     0.03200
C2876       C  0.49467308  0.68983561  0.47405940    -0.10800
H2877       H  0.47925303  0.65981329  0.05369600     0.08800
H2878       H  0.93221932  0.74787342  0.99628685     0.05200
H2879       H  0.50976258  0.68571868  0.45042375     0.06200
C2880       C  0.80440244  0.76649632  0.20212145     0.03300
C2881       C  0.80002897  0.73242793  0.21624198    -0.12900
C2882       C  0.78143896  0.72676533  0.24680723     0.00800
C2883       C  0.76038335  0.75459582  0.25942461    -0.11400
C2884       C  0.76421707  0.79129173  0.24853681     0.03200
C2885       C  0.78646233  0.79681614  0.21839360    -0.10800
H2886       H  0.81233258  0.70952251  0.20361740     0.08800
H2887       H  0.74495239  0.74819774  0.28221115     0.06400
H2888       H  0.79019285  0.82374267  0.20824075     0.06200
C2889       C  0.69818688  0.96859616  0.40247295     0.03300
C2890       C  0.66836236  0.98575383  0.41751623    -0.12900
C2891       C  0.67066100  0.01164560  0.44636080     0.00800
C2892       C  0.70318692  0.01705931  0.46033058    -0.11400
C2893       C  0.73170268  0.00039232  0.44575335     0.03200
C2894       C  0.72890374  0.97713280  0.41701692    -0.10800
H2895       H  0.64425459  0.97993959  0.40628154     0.08800
H2896       H  0.70692394  0.03627304  0.48162495     0.06400
H2897       H  0.75135560  0.96410878  0.40669060     0.06200
C2898       C  0.92676352  0.55145501  0.32073512     0.80300
N2899       N  0.93609524  0.52591982  0.34428010    -0.78000
C2900       C  0.91568499  0.49855127  0.35329412     0.82800
N2901       N  0.88561333  0.49576246  0.33694274    -0.77900
C2902       C  0.87688501  0.51946818  0.31140474     0.82900
N2903       N  0.89709411  0.54793656  0.30445240    -0.79600
O2904       O  0.92410356  0.71752884  0.08861296    -0.85200
O2905       O  0.89774452  0.78641713  0.10263074    -0.82300
C2906       C  0.88495137  0.81222905  0.11934652     0.98200
O2907       O  0.85301425  0.81401519  0.11699411    -0.82300
O2908       O  0.83317034  0.78950216  0.04314176    -0.85000
C2909       C  0.82694114  0.76851932  0.52076041     1.02800
O2910       O  0.82995300  0.73486355  0.02220234    -0.77700
O2911       O  0.89558031  0.71828793  0.03960634    -0.77900
C2912       C  0.92322081  0.71364592  0.05478581     1.02700
O2913       O  0.88116181  0.68977189  0.14401881    -0.85200
O2914       O  0.85527971  0.75953942  0.16436744    -0.82300
C2915       C  0.82327840  0.76527188  0.16721078     0.98300
O2916       O  0.80540345  0.76334124  0.14026055    -0.82300
O2917       O  0.78356051  0.73843327  0.07610365    -0.84900
C2918       C  0.78170213  0.70353054  0.07460595     1.02700
O2919       O  0.80845931  0.68525392  0.07607762    -0.77700
O2920       O  0.87523801  0.66610072  0.09091975    -0.77900
C2921       C  0.88259866  0.66248849  0.12377751     1.02700
Cr2922     Cr  0.88698471  0.73900144  0.12306314     1.93700
Cr2923     Cr  0.82191711  0.77362322  0.09305315     1.93200
Cr2924     Cr  0.85250717  0.70388955  0.05992011     1.39100
O2925       O  0.85288290  0.73766572  0.09313041    -1.23000
C2926       C  0.89044272  0.62468069  0.13696489     0.03300
C2927       C  0.91299496  0.61398480  0.16462477    -0.12900
C2928       C  0.91719448  0.57638175  0.17307281     0.00800
C2929       C  0.89808179  0.55097480  0.15373106    -0.11400
C2930       C  0.87459406  0.56125501  0.12832659     0.03200
C2931       C  0.87318331  0.59769786  0.11910275    -0.10800
H2932       H  0.92674141  0.63420780  0.17908105     0.08800
H2933       H  0.90184430  0.52255001  0.15843311     0.06400
H2934       H  0.85636996  0.60617201  0.09859604     0.06200
C2935       C  0.58131155  0.93884163  0.25522479     0.03300
C2936       C  0.58507418  0.91804555  0.22472355    -0.12900
C2937       C  0.60793110  0.88984337  0.22175974     0.00800
C2938       C  0.62898413  0.88153221  0.24951460    -0.11400
C2939       C  0.62801794  0.90106632  0.28149108     0.03200
C2940       C  0.60289727  0.92972866  0.28497836    -0.10800
H2941       H  0.56819684  0.92255620  0.20281815     0.08800
H2942       H  0.64717458  0.86012076  0.24559953     0.06400
H2943       H  0.60040952  0.94443996  0.30972489     0.06200
C2944       C  0.75732966  0.81224498  0.45740082     0.03300
C2945       C  0.73194656  0.79410239  0.47542942    -0.12900
C2946       C  0.73962753  0.76923865  0.50193715     0.00800
C2947       C  0.77118981  0.75605214  0.50414051    -0.11400
C2948       C  0.79773081  0.77822751  0.49658808     0.03200
C2949       C  0.79071628  0.80790999  0.47253680    -0.10800
H2950       H  0.70606089  0.79858271  0.46857851     0.08800
H2951       H  0.77459302  0.73083563  0.51711760     0.06400
H2952       H  0.80991402  0.82687033  0.46675411     0.06200
C2953       C  0.60018598  0.97033845  0.02205065     0.80300
N2954       N  0.62993937  0.48323385  0.03557394    -0.78000
C2955       C  0.66061209  0.46938063  0.02839559     0.82800
N2956       N  0.66105280  0.94132796  0.00963531    -0.77900
C2957       C  0.63401002  0.92571746  0.99510350     0.82900
N2958       N  0.60401078  0.94178619  0.99970872    -0.79600
O2959       O  0.99911099  0.99072166  0.30350222    -0.85200
O2960       O  0.92945051  0.96185087  0.28255261    -0.82300
C2961       C  0.90480714  0.95306759  0.26311276     0.98200
O2962       O  0.90652601  0.96099835  0.23038103    -0.82300
O2963       O  0.92599617  0.53362988  0.21855560    -0.85000
C2964       C  0.93832224  0.55993047  0.20258745     1.02800
O2965       O  0.96998108  0.56331976  0.20515770    -0.77700
O2966       O  0.98737091  0.53999201  0.27440627    -0.77900
C2967       C  0.00197013  0.52675834  0.30052692     1.02700
O2968       O  0.02281653  0.93972412  0.25283396    -0.85200
O2969       O  0.96159398  0.91355914  0.23030180    -0.82300
C2970       C  0.95251711  0.91029701  0.19741513     0.98300
O2971       O  0.95039190  0.93820190  0.17837295    -0.82300
O2972       O  0.96984245  0.51177625  0.15962133    -0.84900
C2973       C  0.00004570  0.52299126  0.15486780     1.02700
O2974       O  0.02118303  0.51743892  0.17894637    -0.77700
O2975       O  0.54449280  0.99383790  0.24844007    -0.77900
C2976       C  0.04812370  0.95953002  0.25434912     1.02700
Cr2977     Cr  0.97737954  0.95467144  0.26466458     1.93700
Cr2978     Cr  0.94105139  0.98626743  0.19913327     1.93200
Cr2979     Cr  0.00376539  0.52563447  0.22777757     1.39100
O2980       O  0.97524600  0.98678803  0.22918927    -1.23000
C2981       C  0.63502757  0.88600286  0.99337323    -0.11800
C2982       C  0.66628863  0.86916381  0.99464440     0.03600
C2983       C  0.67004385  0.83828606  0.01434099    -0.12400
C2984       C  0.64699000  0.81816255  0.53283914     0.18500
C2985       C  0.61440069  0.82973910  0.52528629    -0.09400
C2986       C  0.60960965  0.86247589  0.50759710    -0.02400
H2987       H  0.69514539  0.82989695  0.01993694     0.05000
C2988       C  0.65522607  0.78368046  0.55064388     0.20500
H2989       H  0.58448917  0.87277420  0.50486161     0.10200
C2990       C  0.65522591  0.75426784  0.52683694    -0.15800
C2991       C  0.68621076  0.74207714  0.51383015     0.03200
C2992       C  0.71466245  0.75711646  0.52751974    -0.11100
C2993       C  0.71353671  0.77338215  0.56110693    -0.01100
C2994       C  0.68268825  0.78571197  0.57404004    -0.06300
H2995       H  0.63307544  0.74839843  0.51209513     0.06200
H2996       H  0.73615567  0.78375226  0.57278447     0.09600
Br2997     Br  0.57606694  0.80351525  0.54010963    -0.06000
Br2998     Br  0.70584569  0.89002858  0.97516017    -0.02900
Br2999     Br  0.69353983  0.71456489  0.47160128    -0.00100
Br3000     Br  0.68416119  0.82160574  0.61079661    -0.04400
C3001       C  0.56941839  0.97008094  0.04429386    -0.11800
C3002       C  0.55065045  0.93808870  0.04189537     0.03600
C3003       C  0.55653407  0.91108453  0.06678951    -0.12400
C3004       C  0.57214639  0.92042404  0.09844190     0.18500
C3005       C  0.57578978  0.95747356  0.10638471    -0.09400
C3006       C  0.57435420  0.98257285  0.07899129    -0.02400
H3007       H  0.54978086  0.88353722  0.06106027     0.05000
C3008       C  0.58804313  0.89320540  0.12116091     0.20500
H3009       H  0.58554374  0.50825490  0.08207491     0.10200
C3010       C  0.62163157  0.89878708  0.12984942    -0.15800
C3011       C  0.63335270  0.88809559  0.16285931     0.03200
C3012       C  0.61082253  0.87241965  0.18696800    -0.11100
C3013       C  0.58130464  0.85732156  0.17390334    -0.01100
C3014       C  0.56948114  0.86806182  0.14081584    -0.06300
H3015       H  0.63704423  0.91615004  0.11349793     0.06200
H3016       H  0.56478686  0.84271727  0.19161910     0.09600
Br3017     Br  0.58409205  0.97449605  0.15314014    -0.06000
Br3018     Br  0.52665013  0.92652579  0.00059989    -0.02900
Br3019     Br  0.67623703  0.90511771  0.17749221    -0.00100
Br3020     Br  0.52800640  0.84894677  0.12504285    -0.04400
C3021       C  0.69001545  0.47938249  0.04954033    -0.11800
C3022       C  0.69726846  0.51519516  0.05750960     0.03600
C3023       C  0.72810805  0.52397775  0.07205484    -0.12400
C3024       C  0.75225544  0.49728226  0.07911771     0.18500
C3025       C  0.74307260  0.46078081  0.07547780    -0.09400
C3026       C  0.71222622  0.45222268  0.06063251    -0.02400
H3027       H  0.73380929  0.55202927  0.07606932     0.05000
C3028       C  0.78678773  0.50820415  0.08869912     0.20500
H3029       H  0.70279186  0.92556909  0.05966098     0.10200
C3030       C  0.80103424  0.49593772  0.12035843    -0.15800
C3031       C  0.83123767  0.50998231  0.13291807     0.03200
C3032       C  0.84902137  0.53596305  0.11264793    -0.11100
C3033       C  0.83640096  0.54406301  0.07869867    -0.01100
C3034       C  0.80505187  0.53276670  0.06785236    -0.06300
H3035       H  0.78709995  0.47762957  0.13712493     0.06200
H3036       H  0.84854609  0.56352203  0.06192142     0.09600
Br3037     Br  0.77255018  0.42123072  0.08579526    -0.06000
Br3038     Br  0.66668978  0.55270082  0.04620249    -0.02900
Br3039     Br  0.84318753  0.49456679  0.17955593    -0.00100
Br3040     Br  0.78706410  0.55805722  0.02785671    -0.04400
C3041       C  0.76592319  0.00977392  0.45671037    -0.11800
C3042       C  0.78569497  0.98549048  0.47620895     0.03600
C3043       C  0.82030879  0.98851989  0.47606720    -0.12400
C3044       C  0.83617598  0.01272915  0.45320709     0.18500
C3045       C  0.81658125  0.03945691  0.43621197    -0.09400
C3046       C  0.78167909  0.03818692  0.43893104    -0.02400
H3047       H  0.83498672  0.96798156  0.48929944     0.05000
C3048       C  0.86869478  0.00066128  0.43819780     0.20500
H3049       H  0.76685157  0.05664913  0.42324748     0.10200
C3050       C  0.86984395  0.96629999  0.42176898    -0.15800
C3051       C  0.89556239  0.95766127  0.39789561     0.03200
C3052       C  0.91855013  0.48431227  0.38954622    -0.11100
C3053       C  0.92443105  0.51131479  0.41493881    -0.01100
C3054       C  0.89810583  0.52213721  0.43714330    -0.06300
H3055       H  0.84903432  0.94802467  0.42429460     0.06200
H3056       H  0.94483069  0.52994391  0.41099534     0.09600
Br3057     Br  0.83618546  0.57370400  0.40364272    -0.06000
Br3058     Br  0.76813738  0.94403822  0.49858150    -0.02900
Br3059     Br  0.89379806  0.91491906  0.36947018    -0.00100
Br3060     Br  0.90121782  0.56916072  0.45782345    -0.04400
C3061       C  0.78822349  0.69328837  0.26785380    -0.11800
C3062       C  0.82107432  0.67872644  0.27075581     0.03600
C3063       C  0.82556188  0.64479545  0.28512072    -0.12400
C3064       C  0.79847999  0.62255652  0.29205174     0.18500
C3065       C  0.76672097  0.63863507  0.29609497    -0.09400
C3066       C  0.76196375  0.67426735  0.28435312    -0.02400
H3067       H  0.85042191  0.63377435  0.28670393     0.05000
C3068       C  0.80513209  0.58321759  0.28968052     0.20500
H3069       H  0.73718695  0.68542801  0.28483581     0.10200
C3070       C  0.79884983  0.56043111  0.31867985    -0.15800
C3071       C  0.81658663  0.52784971  0.32140928     0.03200
C3072       C  0.84280915  0.52075550  0.29729246    -0.11100
C3073       C  0.84118841  0.53676715  0.26407559    -0.01100
C3074       C  0.82425775  0.56924826  0.26057263    -0.06300
H3075       H  0.78276196  0.56895723  0.34039449     0.06200
H3076       H  0.85997443  0.52984442  0.24432279     0.09600
Br3077     Br  0.72915054  0.61320596  0.31525584    -0.06000
Br3078     Br  0.86170667  0.70023935  0.25332262    -0.02900
Br3079     Br  0.80669643  0.49504458  0.35904032    -0.00100
Br3080     Br  0.83351394  0.59496505  0.21730400    -0.04400
C3081       C  0.94245807  0.58741937  0.32363496    -0.11800
C3082       C  0.93198532  0.61794708  0.30416538     0.03600
C3083       C  0.93663528  0.65253884  0.31813363    -0.12400
C3084       C  0.95382270  0.65685512  0.34989299     0.18500
C3085       C  0.97045619  0.62710194  0.36464750    -0.09400
C3086       C  0.96341357  0.59292901  0.35267838    -0.02400
H3087       H  0.92454093  0.67550203  0.30591603     0.05000
C3088       C  0.94413760  0.68575907  0.37437766     0.20500
H3089       H  0.97290133  0.57059276  0.36804989     0.10200
C3090       C  0.92399259  0.67504844  0.40285633    -0.15800
C3091       C  0.92626591  0.69202635  0.43533493     0.03200
C3092       C  0.95111237  0.71837120  0.44000424    -0.11100
C3093       C  0.96605051  0.73404160  0.40988572    -0.01100
C3094       C  0.96170096  0.71812203  0.37652024    -0.06300
H3095       H  0.90934038  0.65063339  0.40084228     0.06200
H3096       H  0.48359178  0.75586562  0.41243073     0.09600
Br3097     Br  0.99641494  0.63001676  0.40676797    -0.06000
Br3098     Br  0.91078027  0.61476101  0.25949875    -0.02900
Br3099     Br  0.90029728  0.66918185  0.96697209    -0.00100
Br3100     Br  0.98088257  0.73928373  0.33512527    -0.04400
C3101       C  0.85631416  0.79676967  0.42924216    -0.11800
C3102       C  0.84566976  0.82192523  0.40367740     0.03600
C3103       C  0.85757932  0.81662955  0.36936474    -0.12400
C3104       C  0.87162006  0.78327848  0.35969812     0.18500
C3105       C  0.86680285  0.75378464  0.38227077    -0.09400
C3106       C  0.86033624  0.76080636  0.41824856    -0.02400
H3107       H  0.85746139  0.83883271  0.35087116     0.05000
C3108       C  0.88573892  0.78015138  0.32394144     0.20500
H3109       H  0.86215571  0.73935410  0.43754364     0.10200
C3110       C  0.91601093  0.79751895  0.31729144    -0.15800
C3111       C  0.91941594  0.81866435  0.28687165     0.03200
C3112       C  0.89159973  0.82191295  0.26414505    -0.11100
C3113       C  0.87033478  0.79192583  0.26338945    -0.01100
C3114       C  0.86346164  0.77569273  0.29620165    -0.06300
H3115       H  0.93386161  0.80031686  0.33837086     0.06200
H3116       H  0.85085032  0.79172084  0.24390611     0.09600
Br3117     Br  0.86332791  0.70595908  0.36352733    -0.06000
Br3118     Br  0.83384126  0.87061264  0.41693912    -0.02900
Br3119     Br  0.95623255  0.85127159  0.28596671    -0.00100
Br3120     Br  0.81871140  0.76357753  0.30889115    -0.04400
C3121       C  0.58724978  0.82349917  0.43683813    -0.11800
C3122       C  0.55343365  0.81822931  0.44687572     0.03600
C3123       C  0.53041655  0.84582786  0.44167214    -0.12400
C3124       C  0.53908698  0.87704584  0.42269267     0.18500
C3125       C  0.57269558  0.88509887  0.41809072    -0.09400
C3126       C  0.59657565  0.85919290  0.42707118    -0.02400
H3127       H  0.50454621  0.84056244  0.44805857     0.05000
C3128       C  0.51243866  0.89551361  0.40257157     0.20500
H3129       H  0.62251678  0.86645294  0.42357258     0.10200
C3130       C  0.49295307  0.91985879  0.42229666    -0.15800
C3131       C  0.46230406  0.90794775  0.43575460     0.03200
C3132       C  0.95042098  0.87442814  0.42351256    -0.11100
C3133       C  0.96446067  0.85902024  0.39252474    -0.01100
C3134       C  0.49511991  0.87154598  0.38057133    -0.06300
H3135       H  0.50417900  0.94390820  0.43306104     0.06200
H3136       H  0.95457999  0.83437015  0.38174391     0.09600
Br3137     Br  0.58649796  0.92941551  0.39682551    -0.06000
Br3138     Br  0.53367501  0.77411652  0.46255749    -0.02900
Br3139     Br  0.43997530  0.93606645  0.47182279    -0.00100
Br3140     Br  0.51991881  0.84275842  0.34698168    -0.04400
C3141       C  0.90883841  0.84374252  0.03906703    -0.11800
C3142       C  0.94096244  0.84682149  0.05283255     0.03600
C3143       C  0.44967996  0.88075702  0.06407556    -0.12400
C3144       C  0.92708854  0.90838690  0.07030745     0.18500
C3145       C  0.89289842  0.89937667  0.06855822    -0.09400
C3146       C  0.88385786  0.86705511  0.05203427    -0.02400
H3147       H  0.47621656  0.88550429  0.06422617     0.05000
C3148       C  0.93925054  0.94634692  0.06985419     0.20500
H3149       H  0.85809134  0.86310311  0.04449984     0.10200
C3150       C  0.42100318  0.97524333  0.05215533    -0.15800
C3151       C  0.43576218  0.00935795  0.04865685     0.03200
C3152       C  0.46976431  0.01366882  0.05559585    -0.11100
C3153       C  0.48736169  0.98440810  0.06916393    -0.01100
C3154       C  0.47107415  0.95391558  0.08025911    -0.06300
H3155       H  0.39599844  0.97169342  0.04236265     0.06200
H3156       H  0.51198180  0.98865536  0.07917453     0.09600
Br3157     Br  0.85805358  0.93004768  0.08668610    -0.06000
Br3158     Br  0.47404492  0.81258172  0.04037532    -0.02900
Br3159     Br  0.41022427  0.54499128  0.03655842    -0.00100
Br3160     Br  0.99306639  0.92889075  0.11851928    -0.04400
C3161       C  0.63248584  0.68456465  0.14638314    -0.11800
C3162       C  0.60394685  0.66250978  0.14886693     0.03600
C3163       C  0.57226758  0.67856536  0.14833063    -0.12400
C3164       C  0.56933699  0.71565231  0.14265758     0.18500
C3165       C  0.59740465  0.73502717  0.13125523    -0.09400
C3166       C  0.62879187  0.71882852  0.13147251    -0.02400
H3167       H  0.55037404  0.66276646  0.15471405     0.05000
C3168       C  0.53852085  0.73493451  0.15273978     0.20500
H3169       H  0.65056167  0.73560074  0.12747272     0.10200
C3170       C  0.03406557  0.74645608  0.18784907    -0.15800
C3171       C  0.00794453  0.76987025  0.19745682     0.03200
C3172       C  0.98563511  0.78213433  0.17140785    -0.11100
C3173       C  0.98944746  0.76906622  0.13628071    -0.01100
C3174       C  0.51576911  0.74585835  0.12700978    -0.06300
H3175       H  0.05188266  0.73829289  0.20769707     0.06200
H3176       H  0.97281541  0.77824059  0.11563023     0.09600
Br3177     Br  0.59501703  0.78518012  0.12201232    -0.06000
Br3178     Br  0.60667518  0.61183144  0.15732426    -0.02900
Br3179     Br  0.00373719  0.78304546  0.24631939    -0.00100
Br3180     Br  0.52182095  0.73228550  0.07829972    -0.04400
C3181       C  0.54640159  0.65321541  0.30466570    -0.11800
C3182       C  0.55804466  0.65908919  0.26982536     0.03600
C3183       C  0.57359569  0.69162511  0.26158613    -0.12400
C3184       C  0.57834518  0.71792578  0.28797484     0.18500
C3185       C  0.56129531  0.71482286  0.32046918    -0.09400
C3186       C  0.54497394  0.68263624  0.32844936    -0.02400
H3187       H  0.58682068  0.69373454  0.23642595     0.05000
C3188       C  0.61004184  0.73768256  0.28602733     0.20500
H3189       H  0.53536062  0.67888169  0.35514434     0.10200
C3190       C  0.61519861  0.76290124  0.25878430    -0.15800
C3191       C  0.64706583  0.76556767  0.24322917     0.03200
C3192       C  0.67146673  0.73993281  0.25277030    -0.11100
C3193       C  0.66983857  0.72791853  0.28793587    -0.01100
C3194       C  0.63827832  0.72219884  0.30261306    -0.06300
H3195       H  0.59417461  0.77644325  0.24664785     0.06200
H3196       H  0.69020319  0.71236866  0.29860506     0.09600
Br3197     Br  0.56657403  0.75015290  0.35733062    -0.06000
Br3198     Br  0.56033256  0.62135836  0.23509889    -0.02900
Br3199     Br  0.65324072  0.79455441  0.20187852    -0.00100
Br3200     Br  0.63502329  0.68321951  0.33597352    -0.04400
C3201       C  0.69815087  0.61363016  0.22933664    -0.11800
C3202       C  0.73257042  0.60709576  0.22600724     0.03600
C3203       C  0.74386652  0.57144457  0.22906555    -0.12400
C3204       C  0.72129947  0.54519794  0.21739869     0.18500
C3205       C  0.68988653  0.54943624  0.23435254    -0.09400
C3206       C  0.67689769  0.58464871  0.23751371    -0.02400
H3207       H  0.76993365  0.56636459  0.22468498     0.05000
C3208       C  0.72161563  0.54336232  0.17697318     0.20500
H3209       H  0.65083389  0.58912606  0.24420467     0.10200
C3210       C  0.75120043  0.55394813  0.15944149    -0.15800
C3211       C  0.75094732  0.58449736  0.13760122     0.03200
C3212       C  0.72042043  0.60096451  0.12783010    -0.11100
C3213       C  0.69109874  0.58208668  0.13684993    -0.01100
C3214       C  0.69215547  0.55196345  0.15885708    -0.06300
H3215       H  0.77499303  0.54446192  0.16919405     0.06200
H3216       H  0.66710047  0.59009623  0.12702121     0.09600
Br3217     Br  0.66512507  0.50881825  0.25104859    -0.06000
Br3218     Br  0.76123778  0.64241238  0.20477901    -0.02900
Br3219     Br  0.79315828  0.60315542  0.12435860    -0.00100
Br3220     Br  0.65368840  0.52263922  0.16228418    -0.04400
C3221       C  0.75091909  0.68136258  0.57401510     0.03300
C3222       C  0.74408127  0.66080257  0.60455294    -0.12900
C3223       C  0.72095713  0.63248497  0.60411857     0.00800
C3224       C  0.69891682  0.63057033  0.57592950    -0.11400
C3225       C  0.70213186  0.64989456  0.54444701     0.03200
C3226       C  0.73065170  0.67396993  0.54269713    -0.10800
H3227       H  0.75871525  0.66535730  0.62814263     0.08800
H3228       H  0.67864180  0.61243162  0.57814984     0.06400
H3229       H  0.73419076  0.68777015  0.01744968     0.06200
C3230       C  0.56693961  0.57468353  0.86666828     0.03300
C3231       C  0.57064622  0.60494305  0.84582056    -0.12900
C3232       C  0.55005543  0.61153099  0.81731472     0.00800
C3233       C  0.52969495  0.58420989  0.80430358    -0.11400
C3234       C  0.02685050  0.54969990  0.82109002     0.03200
C3235       C  0.54464311  0.54618021  0.85436480    -0.10800
H3236       H  0.58695101  0.62635395  0.85467693     0.08800
H3237       H  0.01538848  0.59050863  0.78104243     0.06400
H3238       H  0.04168169  0.02261126  0.87016249     0.06200
C3239       C  0.94581468  0.87148858  0.68410285     0.03300
C3240       C  0.91706206  0.86290610  0.66199155    -0.12900
C3241       C  0.91007623  0.82590997  0.65217191     0.00800
C3242       C  0.93158092  0.79966741  0.66648542    -0.11400
C3243       C  0.96261421  0.80831291  0.68035084     0.03200
C3244       C  0.96878598  0.84371640  0.69112158    -0.10800
H3245       H  0.90099240  0.88434818  0.65267536     0.08800
H3246       H  0.92728679  0.77136630  0.66099468     0.06400
H3247       H  0.99264736  0.85023825  0.70280468     0.06200
C3248       C  0.65895037  0.68027235  0.67866855     0.80300
N3249       N  0.66519468  0.71026987  0.69830831    -0.78000
C3250       C  0.67923707  0.70830353  0.73086507     0.82800
N3251       N  0.68768995  0.67520961  0.74347426    -0.77900
C3252       C  0.68109418  0.64505657  0.72438674     0.82900
N3253       N  0.66650083  0.64758679  0.69219600    -0.79600
O3254       O  0.65511625  0.88827871  0.83761486    -0.85200
O3255       O  0.67564940  0.81667654  0.84734688    -0.82300
C3256       C  0.68340257  0.78953671  0.86496549     0.98200
O3257       O  0.71451059  0.78659949  0.87106163    -0.82300
O3258       O  0.73484195  0.80713060  0.80221354    -0.85000
C3259       C  0.74889548  0.81977192  0.77509712     1.02800
O3260       O  0.75117827  0.85470442  0.77392458    -0.77700
O3261       O  0.68667953  0.88658531  0.79030266    -0.77900
C3262       C  0.65847266  0.89291621  0.80436295     1.02700
O3263       O  0.69537355  0.90806705  0.89482152    -0.85200
O3264       O  0.71345394  0.83747425  0.91418260    -0.82300
C3265       C  0.74468520  0.83142909  0.92158536     0.98300
O3266       O  0.76596294  0.83498785  0.89714395    -0.82300
O3267       O  0.79047083  0.84952696  0.82846534    -0.84900
C3268       C  0.79889248  0.88223669  0.82146758     1.02700
O3269       O  0.77740094  0.90667443  0.82643067    -0.77700
O3270       O  0.71249694  0.93577318  0.84571043    -0.77900
C3271       C  0.70074158  0.93686556  0.87818533     1.02700
Cr3272     Cr  0.68735815  0.86193453  0.87190907     1.93700
Cr3273     Cr  0.74995230  0.82258747  0.84913813     1.93200
Cr3274     Cr  0.73099192  0.89377890  0.81183598     1.39100
O3275       O  0.72414536  0.86167777  0.84600312    -1.23000
C3276       C  0.50771320  0.54501883  0.62448686     0.03300
C3277       C  0.48005565  0.05291089  0.60333613    -0.12900
C3278       C  0.48450212  0.04589028  0.56746450     0.00800
C3279       C  0.51521908  0.55610718  0.55209581    -0.11400
C3280       C  0.54232030  0.56677427  0.57362920     0.03200
C3281       C  0.53966044  0.55668803  0.61067182    -0.10800
H3282       H  0.45518467  0.04858702  0.61396094     0.08800
H3283       H  0.51887081  0.55204838  0.52385213     0.06400
H3284       H  0.56165326  0.55556617  0.62703823     0.06200
C3285       C  0.62699623  0.72932071  0.92749436     0.03300
C3286       C  0.60677746  0.75801518  0.93981337    -0.12900
C3287       C  0.60746516  0.79200213  0.92341528     0.00800
C3288       C  0.62959610  0.79681119  0.89507842    -0.11400
C3289       C  0.65548838  0.77273538  0.88701001     0.03200
C3290       C  0.65295555  0.73752031  0.90180937    -0.10800
H3291       H  0.59080964  0.75325940  0.96232507     0.08800
H3292       H  0.62744873  0.82120256  0.87972109     0.06400
H3293       H  0.67143178  0.71733154  0.89462590     0.06200
C3294       C  0.83160182  0.88852063  0.80079412     0.03300
C3295       C  0.85076710  0.92114435  0.79522312    -0.12900
C3296       C  0.88186033  0.91993338  0.77491840     0.00800
C3297       C  0.89188205  0.88612875  0.76153909    -0.11400
C3298       C  0.87471566  0.85458860  0.76818364     0.03200
C3299       C  0.84329155  0.85732383  0.78399363    -0.10800
H3300       H  0.84181623  0.94615333  0.80634419     0.08800
H3301       H  0.91411278  0.88338635  0.74633268     0.06400
H3302       H  0.82825822  0.83347591  0.78547681     0.06200
C3303       C  0.90549018  0.83651306  0.50124066     0.80300
N3304       N  0.92733789  0.85576677  0.48113140    -0.78000
C3305       C  0.92834502  0.85602858  0.94498713     0.82800
N3306       N  0.90640871  0.83392534  0.92969676    -0.77900
C3307       C  0.88405207  0.81505873  0.94959280     0.82900
N3308       N  0.88443987  0.81712824  0.98548584    -0.79600
O3309       O  0.67168065  0.64226379  0.98416427    -0.85200
O3310       O  0.65679404  0.57256177  0.96581967    -0.82300
C3311       C  0.64502732  0.04217686  0.95765290     0.98200
O3312       O  0.61289697  0.03881473  0.96058499    -0.82300
O3313       O  0.58648517  0.56372976  0.53016037    -0.85000
C3314       C  0.57246213  0.58252241  0.55395928     1.02800
O3315       O  0.57649760  0.61668007  0.55214229    -0.77700
O3316       O  0.64434144  0.63771327  0.53443408    -0.77900
C3317       C  0.67209653  0.64328317  0.51904165     1.02700
O3318       O  0.62428775  0.66416994  0.92673502    -0.85200
O3319       O  0.61175445  0.59132793  0.90766005    -0.82300
C3320       C  0.58120732  0.58095327  0.90342376     0.98300
O3321       O  0.56123941  0.58234415  0.92932580    -0.82300
O3322       O  0.53461373  0.61076528  0.49713933    -0.84900
C3323       C  0.53174412  0.64557617  0.50078665     1.02700
O3324       O  0.55734951  0.66455197  0.49772703    -0.77700
O3325       O  0.61806654  0.69009208  0.97869816    -0.77900
C3326       C  0.62252885  0.69260998  0.94500929     1.02700
Cr3327     Cr  0.63809728  0.61745247  0.94832822     1.93700
Cr3328     Cr  0.57594492  0.57755091  0.97861082     1.93200
Cr3329     Cr  0.60047444  0.64871088  0.51400806     1.39100
O3330       O  0.60363039  0.61549931  0.97844122    -1.23000
C3331       C  0.49950049  0.66775235  0.50359270     0.03300
C3332       C  0.47903677  0.67561681  0.53486420    -0.12900
C3333       C  0.45568354  0.70595128  0.53490620     0.00800
C3334       C  0.95398516  0.72702847  0.50420126    -0.11400
C3335       C  0.46762060  0.71621448  0.96801250     0.03200
C3336       C  0.49261619  0.68996079  0.96927701    -0.10800
H3337       H  0.48129076  0.65896996  0.55826498     0.08800
H3338       H  0.93520426  0.74812079  0.50193812     0.05200
H3339       H  0.50745306  0.68536020  0.94553232     0.06200
C3340       C  0.80533740  0.76504970  0.70429871     0.03300
C3341       C  0.80094427  0.73118358  0.71887672    -0.12900
C3342       C  0.78257346  0.72603096  0.74965182     0.00800
C3343       C  0.76177245  0.75424686  0.76205581    -0.11400
C3344       C  0.76518757  0.79066874  0.75005238     0.03200
C3345       C  0.78734711  0.79561219  0.71985996    -0.10800
H3346       H  0.81306126  0.70805683  0.70644431     0.08800
H3347       H  0.74668830  0.74840491  0.78524250     0.06400
H3348       H  0.79088149  0.82229844  0.70903193     0.06200
C3349       C  0.69897263  0.97090390  0.90075715     0.03300
C3350       C  0.66921907  0.98777781  0.91641005    -0.12900
C3351       C  0.67173640  0.01415776  0.94485897     0.00800
C3352       C  0.70451546  0.02039650  0.95782693    -0.11400
C3353       C  0.73294636  0.00410072  0.94265165     0.03200
C3354       C  0.72985606  0.98035250  0.91431499    -0.10800
H3355       H  0.64493830  0.98124784  0.90603399     0.08800
H3356       H  0.70842961  0.03954349  0.97914432     0.06400
H3357       H  0.75218277  0.96715060  0.90399948     0.06200
C3358       C  0.92745422  0.55026432  0.81691638     0.80300
N3359       N  0.93669141  0.52518283  0.84091069    -0.78000
C3360       C  0.91613260  0.49839000  0.85084478     0.82800
N3361       N  0.88601358  0.49541165  0.83469389    -0.77900
C3362       C  0.87732245  0.51844346  0.80854106     0.82900
N3363       N  0.89768522  0.54663400  0.80081234    -0.79600
O3364       O  0.92571597  0.71487004  0.59325763    -0.85200
O3365       O  0.90001637  0.78368727  0.60656594    -0.82300
C3366       C  0.88743236  0.80973851  0.62299101     0.98200
O3367       O  0.85553155  0.81223615  0.62023247    -0.82300
O3368       O  0.83540866  0.78917411  0.54594561    -0.85000
C3369       C  0.82410216  0.76858342  0.01844396     1.02800
O3370       O  0.83316571  0.73483500  0.52426319    -0.77700
O3371       O  0.89831431  0.71859111  0.54376925    -0.77900
C3372       C  0.92551682  0.71269286  0.55936884     1.02700
O3373       O  0.88103882  0.68722985  0.64681367    -0.85200
O3374       O  0.85643068  0.75752125  0.66742794    -0.82300
C3375       C  0.82449868  0.76352606  0.66973560     0.98300
O3376       O  0.80697287  0.76178961  0.64254491    -0.82300
O3377       O  0.78580585  0.73752453  0.57788487    -0.84900
C3378       C  0.78394311  0.70264271  0.57554558     1.02700
O3379       O  0.81063393  0.68423980  0.57661915    -0.77700
O3380       O  0.87678499  0.66457654  0.59302692    -0.77900
C3381       C  0.88296152  0.66029463  0.62610093     1.02700
Cr3382     Cr  0.88821487  0.73658502  0.62668614     1.93700
Cr3383     Cr  0.82404395  0.77246874  0.59568297     1.93200
Cr3384     Cr  0.85494156  0.70322703  0.56212167     1.39100
O3385       O  0.85466481  0.73622296  0.59595920    -1.23000
C3386       C  0.88998247  0.62221801  0.63895702     0.03300
C3387       C  0.91267463  0.61097351  0.66621357    -0.12900
C3388       C  0.91609233  0.57334853  0.67479723     0.00800
C3389       C  0.89619809  0.54838947  0.65574215    -0.11400
C3390       C  0.87257407  0.55917976  0.63059607     0.03200
C3391       C  0.87193046  0.59569933  0.62127125    -0.10800
H3392       H  0.92719239  0.63086962  0.68023282     0.08800
H3393       H  0.89970234  0.51992576  0.66028500     0.06400
H3394       H  0.85509682  0.60470841  0.60095047     0.06200
C3395       C  0.58252228  0.93921491  0.75415259     0.03300
C3396       C  0.58769482  0.92060531  0.72251131    -0.12900
C3397       C  0.61219698  0.89417708  0.71845198     0.00800
C3398       C  0.63304275  0.88545939  0.74612907    -0.11400
C3399       C  0.63018720  0.90272033  0.77924862     0.03200
C3400       C  0.60371352  0.92948657  0.78383228    -0.10800
H3401       H  0.57075161  0.92522318  0.70069807     0.08800
H3402       H  0.65219785  0.86521056  0.74137228     0.06400
H3403       H  0.59990787  0.94237788  0.80937415     0.06200
C3404       C  0.75476487  0.81278327  0.95620015     0.03300
C3405       C  0.72910281  0.79485110  0.97386525    -0.12900
C3406       C  0.73622969  0.77025924  0.00075561     0.00800
C3407       C  0.76773457  0.75694752  0.00345543    -0.11400
C3408       C  0.79462094  0.77838967  0.99505483     0.03200
C3409       C  0.78803411  0.80795728  0.97100574    -0.10800
H3410       H  0.70338495  0.79911505  0.96624256     0.08800
H3411       H  0.77094671  0.73172746  0.01638322     0.06400
H3412       H  0.80750064  0.82646596  0.96479755     0.06200
C3413       C  0.59957851  0.96701686  0.51916492     0.80300
N3414       N  0.62661944  0.48348431  0.53584607    -0.78000
C3415       C  0.65761108  0.46993697  0.52987832     0.82800
N3416       N  0.66117546  0.93918367  0.50853118    -0.77900
C3417       C  0.63467571  0.92218372  0.49450801     0.82900
N3418       N  0.60418735  0.93743140  0.49831146    -0.79600
O3419       O  0.00024759  0.98931123  0.80452935    -0.85200
O3420       O  0.93040925  0.95965913  0.78387266    -0.82300
C3421       C  0.90595473  0.95032948  0.76432858     0.98200
O3422       O  0.90763159  0.95809021  0.73155180    -0.82300
O3423       O  0.92541542  0.52986716  0.71954580    -0.85000
C3424       C  0.93748175  0.55653251  0.70397261     1.02800
O3425       O  0.96906391  0.56055036  0.70695151    -0.77700
O3426       O  0.98729308  0.53655685  0.77599347    -0.77900
C3427       C  0.00286582  0.52324701  0.80142788     1.02700
O3428       O  0.02394741  0.93869105  0.75376247    -0.85200
O3429       O  0.96273260  0.91193200  0.73240029    -0.82300
C3430       C  0.95415559  0.90856378  0.69946950     0.98300
O3431       O  0.95242308  0.93621175  0.68006341    -0.82300
O3432       O  0.97003595  0.50941083  0.66092778    -0.84900
C3433       C  0.00010980  0.52111057  0.65648075     1.02700
O3434       O  0.02116589  0.51553514  0.68052332    -0.77700
O3435       O  0.54489904  0.99296913  0.74867302    -0.77900
C3436       C  0.04890520  0.95903681  0.75451036     1.02700
Cr3437     Cr  0.97843576  0.95314074  0.76607402     1.93700
Cr3438     Cr  0.94180034  0.98393814  0.70030662     1.93200
Cr3439     Cr  0.00348401  0.52320616  0.72917278     1.39100
O3440       O  0.97579318  0.98517986  0.73050853    -1.23000
C3441       C  0.63704491  0.88258301  0.49498989    -0.11800
C3442       C  0.66887611  0.86712681  0.49702681     0.03600
C3443       C  0.67380703  0.83762617  0.51838364    -0.12400
C3444       C  0.64257124  0.81906098  0.02757314     0.18500
C3445       C  0.61042223  0.83244174  0.02096982    -0.09400
C3446       C  0.60684133  0.86624577  0.00483910    -0.02400
H3447       H  0.69926770  0.83014143  0.52358879     0.05000
C3448       C  0.64976317  0.78390438  0.04464373     0.20500
H3449       H  0.58214076  0.87772544  0.00299380     0.10200
C3450       C  0.65110349  0.75517576  0.02008484    -0.15800
C3451       C  0.68266816  0.74247434  0.00919573     0.03200
C3452       C  0.71032343  0.75723121  0.02485213    -0.11100
C3453       C  0.70732317  0.77291084  0.05859341    -0.01100
C3454       C  0.67580826  0.78512733  0.06974232    -0.06300
H3455       H  0.62983348  0.74997851  0.00396510     0.06200
H3456       H  0.72928183  0.78275955  0.07199783     0.09600
Br3457     Br  0.57134478  0.80766669  0.03642136    -0.06000
Br3458     Br  0.70748082  0.88843716  0.47596297    -0.02900
Br3459     Br  0.69261223  0.71495387  0.96737704    -0.00100
Br3460     Br  0.67485126  0.81978366  0.10751733    -0.04400
C3461       C  0.56800666  0.96803970  0.54022085    -0.11800
C3462       C  0.54973884  0.93561272  0.53928423     0.03600
C3463       C  0.55759417  0.90912600  0.56406049    -0.12400
C3464       C  0.57439882  0.91955215  0.59462496     0.18500
C3465       C  0.57654920  0.95684987  0.60210150    -0.09400
C3466       C  0.57278977  0.98148818  0.57456403    -0.02400
H3467       H  0.55144924  0.88128305  0.55899143     0.05000
C3468       C  0.59235552  0.89346734  0.61678624     0.20500
H3469       H  0.58200708  0.50763333  0.58147103     0.10200
C3470       C  0.62552564  0.90180606  0.62518362    -0.15800
C3471       C  0.63732261  0.89446652  0.65904104     0.03200
C3472       C  0.61584482  0.87757669  0.68345283    -0.11100
C3473       C  0.58753782  0.85970990  0.67095294    -0.01100
C3474       C  0.57529815  0.86800409  0.63745287    -0.06300
H3475       H  0.63974180  0.91971962  0.60819173     0.06200
H3476       H  0.57193906  0.84459092  0.68918289     0.09600
Br3477     Br  0.58517704  0.97493424  0.64833842    -0.06000
Br3478     Br  0.52385483  0.92258896  0.50002316    -0.02900
Br3479     Br  0.67763077  0.91769760  0.67372744    -0.00100
Br3480     Br  0.53469538  0.84595955  0.62292468    -0.04400
C3481       C  0.68615098  0.48012502  0.55224907    -0.11800
C3482       C  0.69323891  0.51594554  0.56017647     0.03600
C3483       C  0.72381765  0.52482530  0.57543931    -0.12400
C3484       C  0.74766924  0.49806223  0.58355333     0.18500
C3485       C  0.73810394  0.46157161  0.58051667    -0.09400
C3486       C  0.70773745  0.45302513  0.56463012    -0.02400
H3487       H  0.72963948  0.55289654  0.57911300     0.05000
C3488       C  0.78242670  0.50876557  0.59296702     0.20500
H3489       H  0.70226906  0.92435973  0.55861641     0.10200
C3490       C  0.79708484  0.49610035  0.62427840    -0.15800
C3491       C  0.82824165  0.50866466  0.63578745     0.03200
C3492       C  0.84610411  0.53451730  0.61536393    -0.11100
C3493       C  0.83289372  0.54311688  0.58176932    -0.01100
C3494       C  0.80104949  0.53257323  0.57157294    -0.06300
H3495       H  0.78315334  0.47809887  0.64135372     0.06200
H3496       H  0.84543676  0.56187931  0.56451965     0.09600
Br3497     Br  0.76630384  0.42168685  0.59323507    -0.06000
Br3498     Br  0.66263227  0.55297169  0.54774040    -0.02900
Br3499     Br  0.84239219  0.48975566  0.68045559    -0.00100
Br3500     Br  0.78345855  0.55677196  0.53076629    -0.04400
C3501       C  0.76726478  0.01245690  0.95419079    -0.11800
C3502       C  0.78567961  0.98758367  0.97438958     0.03600
C3503       C  0.82039364  0.98903999  0.97507251    -0.12400
C3504       C  0.83770792  0.01243733  0.95253981     0.18500
C3505       C  0.81945151  0.03989987  0.93491705    -0.09400
C3506       C  0.78443471  0.04006614  0.93666139    -0.02400
H3507       H  0.83395323  0.96798977  0.98884725     0.05000
C3508       C  0.87019057  0.99896643  0.93844002     0.20500
H3509       H  0.77064026  0.05896938  0.92043996     0.10200
C3510       C  0.87061498  0.96432705  0.92251406    -0.15800
C3511       C  0.89591864  0.95494344  0.89837225     0.03200
C3512       C  0.91892325  0.48568662  0.88762507    -0.11100
C3513       C  0.92533476  0.51351586  0.91202165    -0.01100
C3514       C  0.89957875  0.52496437  0.93465900    -0.06300
H3515       H  0.84945714  0.94657290  0.92534710     0.06200
H3516       H  0.94570267  0.53195361  0.90713544     0.09600
Br3517     Br  0.83894909  0.57641032  0.90007344    -0.06000
Br3518     Br  0.76572214  0.94751949  0.99694521    -0.02900
Br3519     Br  0.89297427  0.91241410  0.86985204    -0.00100
Br3520     Br  0.90351980  0.57221042  0.95462792    -0.04400
C3521       C  0.78920353  0.69256509  0.77087846    -0.11800
C3522       C  0.82191727  0.67757008  0.77358263     0.03600
C3523       C  0.82610739  0.64357124  0.78794696    -0.12400
C3524       C  0.79876219  0.62172762  0.79487524     0.18500
C3525       C  0.76737893  0.63837883  0.79973980    -0.09400
C3526       C  0.76295634  0.67405152  0.78795235    -0.02400
H3527       H  0.85080684  0.63207407  0.78921630     0.05000
C3528       C  0.80456296  0.58237087  0.79078009     0.20500
H3529       H  0.73832546  0.68540159  0.78843880     0.10200
C3530       C  0.79910749  0.55871047  0.81923129    -0.15800
C3531       C  0.81725132  0.52628532  0.82062193     0.03200
C3532       C  0.84285418  0.52007137  0.79549752    -0.11100
C3533       C  0.84009825  0.53686674  0.76275862    -0.01100
C3534       C  0.82277389  0.56923424  0.76066288    -0.06300
H3535       H  0.78366027  0.56660810  0.84168585     0.06200
H3536       H  0.85834063  0.53068239  0.74221042     0.09600
Br3537     Br  0.72995529  0.61370696  0.82016933    -0.06000
Br3538     Br  0.86261312  0.69846616  0.75568974    -0.02900
Br3539     Br  0.80967814  0.49334157  0.85868364    -0.00100
Br3540     Br  0.83067963  0.59608496  0.71793964    -0.04400
C3541       C  0.94390952  0.58592463  0.81899406    -0.11800
C3542       C  0.93365678  0.61660717  0.79966106     0.03600
C3543       C  0.93995241  0.65107843  0.81301208    -0.12400
C3544       C  0.95768648  0.65501066  0.84444388     0.18500
C3545       C  0.97403779  0.62501096  0.85894703    -0.09400
C3546       C  0.96586095  0.59105059  0.84732941    -0.02400
H3547       H  0.92790815  0.67429584  0.80120219     0.05000
C3548       C  0.94733796  0.68301687  0.86949105     0.20500
H3549       H  0.97493384  0.56866462  0.86287590     0.10200
C3550       C  0.92702504  0.67145790  0.89749417    -0.15800
C3551       C  0.92630542  0.69003005  0.92925855     0.03200
C3552       C  0.94938408  0.71801174  0.93438159    -0.11100
C3553       C  0.96475055  0.73376987  0.90449755    -0.01100
C3554       C  0.96295927  0.71651874  0.87143963    -0.06300
H3555       H  0.91373063  0.64614471  0.89548860     0.06200
H3556       H  0.48122207  0.75686508  0.90756620     0.09600
Br3557     Br  0.99957147  0.62742063  0.90152441    -0.06000
Br3558     Br  0.90914582  0.61419019  0.75702671    -0.02900
Br3559     Br  0.90174387  0.67016005  0.47360167    -0.00100
Br3560     Br  0.98361662  0.73705901  0.83046768    -0.04400
C3561       C  0.85665820  0.79870178  0.93065114    -0.11800
C3562       C  0.84544728  0.82179074  0.90372436     0.03600
C3563       C  0.85804971  0.81483349  0.87004279    -0.12400
C3564       C  0.87251161  0.78109933  0.86245137     0.18500
C3565       C  0.86750830  0.75293153  0.88660401    -0.09400
C3566       C  0.86096160  0.76214915  0.92205451    -0.02400
H3567       H  0.85777769  0.83590492  0.85035948     0.05000
C3568       C  0.88643247  0.77614909  0.82688217     0.20500
H3569       H  0.86257770  0.74198499  0.94267062     0.10200
C3570       C  0.91682221  0.79310471  0.81970435    -0.15800
C3571       C  0.91980420  0.81464317  0.78947129     0.03200
C3572       C  0.89173753  0.81839980  0.76721298    -0.11100
C3573       C  0.86998147  0.78878541  0.76684143    -0.01100
C3574       C  0.86354300  0.77229695  0.79961433    -0.06300
H3575       H  0.93495648  0.79584209  0.84062089     0.06200
H3576       H  0.85013697  0.78899101  0.74781791     0.09600
Br3577     Br  0.86207503  0.70438168  0.87056364    -0.06000
Br3578     Br  0.83138902  0.87037927  0.91436010    -0.02900
Br3579     Br  0.95693973  0.84663024  0.78782729    -0.00100
Br3580     Br  0.81870534  0.76111277  0.81330416    -0.04400
C3581       C  0.58516469  0.82338672  0.93282254    -0.11800
C3582       C  0.55165849  0.81984291  0.94443596     0.03600
C3583       C  0.53015229  0.84917766  0.94173679    -0.12400
C3584       C  0.53968050  0.88013536  0.92278147     0.18500
C3585       C  0.57348967  0.88629029  0.91682969    -0.09400
C3586       C  0.59624346  0.85866176  0.92391735    -0.02400
H3587       H  0.50431844  0.84532829  0.94920641     0.05000
C3588       C  0.51343969  0.89903019  0.90250712     0.20500
H3589       H  0.62243671  0.86397771  0.91897250     0.10200
C3590       C  0.49385036  0.92296624  0.92247238    -0.15800
C3591       C  0.46327375  0.91066569  0.93564751     0.03200
C3592       C  0.95095035  0.87809666  0.92316219    -0.11100
C3593       C  0.96505257  0.86341715  0.89181860    -0.01100
C3594       C  0.49629326  0.87536759  0.87995646    -0.06300
H3595       H  0.50506994  0.94669771  0.93389650     0.06200
H3596       H  0.95493768  0.83921932  0.88016726     0.09600
Br3597     Br  0.58879626  0.93022607  0.89602348    -0.06000
Br3598     Br  0.53020893  0.77608079  0.95835377    -0.02900
Br3599     Br  0.44172005  0.93757866  0.97296407    -0.00100
Br3600     Br  0.52163169  0.84692438  0.84647434    -0.04400
C3601       C  0.90604800  0.84294596  0.53944721    -0.11800
C3602       C  0.93821738  0.84459571  0.55356143     0.03600
C3603       C  0.44840066  0.87719833  0.56741626    -0.12400
C3604       C  0.92599277  0.90568604  0.57346331     0.18500
C3605       C  0.89155945  0.89780787  0.57124988    -0.09400
C3606       C  0.88167059  0.86672890  0.55295021    -0.02400
H3607       H  0.47503827  0.88103569  0.56781062     0.05000
C3608       C  0.93908348  0.94330756  0.57310537     0.20500
H3609       H  0.85587912  0.86410508  0.54495910     0.10200
C3610       C  0.42185995  0.97156618  0.55528172    -0.15800
C3611       C  0.43672158  0.00548554  0.55092343     0.03200
C3612       C  0.47053349  0.01019830  0.55870086    -0.11100
C3613       C  0.48772061  0.98138705  0.57385512    -0.01100
C3614       C  0.47161736  0.95045015  0.58432346    -0.06300
H3615       H  0.39694980  0.96780821  0.54524571     0.06200
H3616       H  0.51202469  0.98590894  0.58448321     0.09600
Br3617     Br  0.85766932  0.92875445  0.59096241    -0.06000
Br3618     Br  0.47130134  0.80976141  0.54107975    -0.02900
Br3619     Br  0.40921514  0.54760035  0.54182024    -0.00100
Br3620     Br  0.99427657  0.92340831  0.61994217    -0.04400
C3621       C  0.63622529  0.68387228  0.64830732    -0.11800
C3622       C  0.60658106  0.66347022  0.64848182     0.03600
C3623       C  0.57588677  0.68127639  0.64681162    -0.12400
C3624       C  0.57509461  0.71850737  0.64206135     0.18500
C3625       C  0.60447055  0.73641608  0.63223353    -0.09400
C3626       C  0.63497399  0.71835650  0.63344159    -0.02400
H3627       H  0.55299182  0.66664716  0.65179722     0.05000
C3628       C  0.54502875  0.73884751  0.65225458     0.20500
H3629       H  0.65770449  0.73387139  0.63075631     0.10200
C3630       C  0.04141687  0.75055492  0.68751961    -0.15800
C3631       C  0.01429507  0.77211095  0.69804965     0.03200
C3632       C  0.99051073  0.78275635  0.67274955    -0.11100
C3633       C  0.99410818  0.77019557  0.63745376    -0.01100
C3634       C  0.52139479  0.74867939  0.62705080    -0.06300
H3635       H  0.05984772  0.74267763  0.70691353     0.06200
H3636       H  0.97640199  0.77826382  0.61737380     0.09600
Br3637     Br  0.60490233  0.78667850  0.62420172    -0.06000
Br3638     Br  0.60591867  0.61264921  0.65486371    -0.02900
Br3639     Br  0.01058543  0.78444430  0.74717930    -0.00100
Br3640     Br  0.52654709  0.73474284  0.57836263    -0.04400
C3641       C  0.55025976  0.64855145  0.80291184    -0.11800
C3642       C  0.56348718  0.65517844  0.76900041     0.03600
C3643       C  0.57926706  0.68793475  0.76226019    -0.12400
C3644       C  0.58241841  0.71372558  0.78945612     0.18500
C3645       C  0.56405751  0.70966700  0.82097234    -0.09400
C3646       C  0.54757615  0.67731388  0.82730518    -0.02400
H3647       H  0.59339043  0.69086204  0.73774093     0.05000
C3648       C  0.61317712  0.73504169  0.78909091     0.20500
H3649       H  0.53693788  0.67289203  0.85340252     0.10200
C3650       C  0.61784762  0.76092047  0.76238063    -0.15800
C3651       C  0.64963978  0.76434249  0.74683881     0.03200
C3652       C  0.67434955  0.73900503  0.75629867    -0.11100
C3653       C  0.67315293  0.72823563  0.79188951    -0.01100
C3654       C  0.64170941  0.72041837  0.80585684    -0.06300
H3655       H  0.59658069  0.77407119  0.75033616     0.06200
H3656       H  0.69402732  0.71406475  0.80308867     0.09600
Br3657     Br  0.56648059  0.74444940  0.85849983    -0.06000
Br3658     Br  0.56699008  0.61777282  0.73424615    -0.02900
Br3659     Br  0.65498988  0.79359702  0.70557390    -0.00100
Br3660     Br  0.63958931  0.67952310  0.83702451    -0.04400
C3661       C  0.69383377  0.61027972  0.73575155    -0.11800
C3662       C  0.72827766  0.60349877  0.73274932     0.03600
C3663       C  0.73923650  0.56760202  0.73447883    -0.12400
C3664       C  0.71676890  0.54251266  0.72037238     0.18500
C3665       C  0.68510029  0.54598272  0.73698998    -0.09400
C3666       C  0.67223258  0.58108954  0.74191755    -0.02400
H3667       H  0.76545539  0.56250683  0.73072446     0.05000
C3668       C  0.71795584  0.54440225  0.67993459     0.20500
H3669       H  0.64606113  0.58540655  0.74818969     0.10200
C3670       C  0.74851320  0.55442720  0.66389119    -0.15800
C3671       C  0.75002784  0.58479382  0.64184213     0.03200
C3672       C  0.72053441  0.60224692  0.63069961    -0.11100
C3673       C  0.69025231  0.58520380  0.63941184    -0.01100
C3674       C  0.68920281  0.55522709  0.66155513    -0.06300
H3675       H  0.77166797  0.54397530  0.67441000     0.06200
H3676       H  0.66701077  0.59472599  0.62899279     0.09600
Br3677     Br  0.66014263  0.50463595  0.75148012    -0.06000
Br3678     Br  0.75696469  0.63885151  0.71155156    -0.02900
Br3679     Br  0.79304843  0.60276242  0.63107153    -0.00100
Br3680     Br  0.64846509  0.52943527  0.66458841    -0.04400
loop_ 
_geom_bond_atom_site_label_1 
_geom_bond_atom_site_label_2 
_geom_bond_distance 
_geom_bond_site_symmetry_2 
_ccdc_geom_bond_type 
C1            C2   1.409       .  A
C1            C6   1.462       .  A
C1          C158   1.548       .  S
C2            C3   1.407       .  A
C2            H7   1.082       .  S
C3            C4   1.390       .  A
C3          C452   1.509       .  S
C4            C5   1.397       .  A
C4            H8   1.066       .  S
C5            C6   1.453       .  A
C5           C97   1.557       .  S
C6          H469   1.072       .  S
H9          C466   1.071       .  S
C10          C11   1.383       .  A
C10          C15   1.468       .  A
C10         C100   1.526       .  S
C11          C12   1.384       .  A
C11          H16   1.085       .  S
C12          C13   1.396       .  A
C12         C421   1.482       .  S
C13        C1854   1.427       .  A
C13        H1857   1.082       .  S
C14        C1853   1.427       .  A
C14        C1855   1.459       .  A
C14         C207   1.571       .  S
C15        C1854   1.459       .  A
C15        H2778   1.082       .  S
H17        C1853   1.082       .  S
H18        C2775   1.082       .  S
C19          C20   1.467       .  A
C19          C24   1.408       .  A
C19         C210   1.544       .  S
C20          C21   1.455       .  A
C20          H25   1.079       .  S
C21          C22   1.403       .  A
C21         C146   1.556       .  S
C22          C23   1.389       .  A
C22          H26   1.085       .  S
C23          C24   1.402       .  A
C23         C412   1.488       .  S
C24          H27   1.084       .  S
C28         C401   1.475       .  S
C28          N29   1.358       .  A
C28          N33   1.352       .  A
N29          C30   1.355       .  A
C30         C432   1.493       .  S
C30          N31   1.358       .  A
N31          C32   1.356       .  A
C32         C441   1.451       .  S
C32          N33   1.355       .  A
O34         Cr52   2.086       .  S
O34          C42   1.273       .  A
O35         Cr52   1.979       .  S
O35          C36   1.248       .  A
C36          C69   1.530       .  S
C36          O37   1.275       .  A
O37         Cr53   2.127       .  S
O38         Cr53   1.959       .  S
O38          C39   1.257       .  A
C39         C124   1.569       .  S
C39          O40   1.301       .  A
O40         Cr54   2.178       .  S
O41         Cr54   1.987       .  S
O41          C42   1.265       .  A
C42         C179   1.534       .  S
O43         Cr52   1.940       .  S
O43          C51   1.259       .  A
O44         Cr52   2.127       .  S
O44          C45   1.304       .  A
C45         C184   1.546       .  S
C45          O46   1.258       .  A
O46         Cr53   1.988       .  S
O47         Cr53   2.068       .  S
O47          C48   1.291       .  A
C48          C74   1.542       .  S
C48          O49   1.258       .  A
O49         Cr54   2.007       .  S
O50         Cr54   2.130       .  S
O50          C51   1.305       .  A
C51         C129   1.516       .  S
Cr52         O55   1.760       .  S
Cr53         O55   1.784       .  S
Cr54         O55   1.782       .  S
C56          C61   1.446       .  A
C56         C977   1.399   1_455  A
C56        C2053   1.529   1_455  S
C57          C58   1.386       .  A
C57         C976   1.400   1_655  A
C57          H62   1.082       .  S
C58         C979   1.401   1_655  A
C58         C392   1.473       .  S
C59          C60   1.414       .  A
C59         C978   1.401   1_455  A
C59          H63   1.082       .  S
C60          C61   1.449       .  A
C60          C94   1.526       .  S
C61          H64   1.080       .  S
C65          C66   1.407       .  A
C65          C70   1.450       .  A
C65         C106   1.529       .  S
C66          C67   1.406       .  A
C66          H71   1.072       .  S
C67          C68   1.395       .  A
C67         C361   1.507       .  S
C68          C69   1.396       .  A
C68          H72   1.077       .  S
C69          C70   1.430       .  A
C70          H73   1.082       .  S
C74          C75   1.457       .  A
C74          C79   1.393       .  A
C75          C76   1.459       .  A
C75          H80   1.074       .  S
C76          C77   1.400       .  A
C76         C201   1.543       .  S
C77          C78   1.377       .  A
C77          H81   1.066       .  S
C78          C79   1.391       .  A
C78         C352   1.500       .  S
C79          H82   1.074       .  S
C83         C381   1.452       .  S
C83          N84   1.365   1_554  A
C83         N548   1.354   1_554  A
N84         C545   1.350       .  A
C85         C372   1.471       .  S
C85          N86   1.337       .  A
C85         N544   1.347       .  A
N86          C87   1.356       .  A
C87         C341   1.451       .  S
C87          N88   1.357       .  A
N88         C543   1.357       .  A
O89        Cr107   2.135       .  S
O89         C557   1.293       .  A
O90        Cr107   1.942       .  S
O90        C1011   1.252       .  A
C91         C131   1.555       .  S
C91          O92   1.298       .  A
C91        O1010   1.253       .  A
O92       Cr1028   2.160       .  S
O93        Cr568   1.988   1_554  S
O93          C94   1.260       .  A
C94          O95   1.280       .  A
O95        Cr109   2.091       .  S
O96        Cr109   1.961       .  S
O96          C97   1.265       .  A
C97         O549   1.291   1_554  A
O98        Cr107   1.992       .  S
O98         C106   1.258       .  A
O99        Cr107   2.109       .  S
O99         C100   1.296       .  A
C100        O101   1.256       .  A
O101       Cr108   1.966       .  S
O102       Cr568   2.170       .  S
O102        C103   1.304       .  A
C103        C111   1.535   1_456  S
C103        O104   1.251       .  A
O104       Cr109   1.928   1_556  S
O105       Cr569   2.068       .  S
O105        C106   1.285       .  A
Cr107       O110   1.784       .  S
Cr108      O1012   2.161       .  S
Cr108       O553   1.984       .  S
Cr108       O562   2.161       .  S
Cr108       O110   1.801       .  S
Cr109       O565   2.063   1_554  S
Cr109       O570   1.788   1_554  S
O110       Cr569   1.789       .  S
C111        C112   1.459       .  A
C111        C576   1.397   1_554  A
C112        C113   1.463       .  A
C112        H117   1.082       .  S
C113       C1954   1.405       .  A
C113       C1992   1.533       .  S
C114       C1953   1.406       .  A
C114       C2415   1.382   1_554  A
C114        H118   1.086   1_554  S
C115        C116   1.391       .  A
C115       C2414   1.380       .  A
C115       C2172   1.464       .  S
C116        C571   1.398       .  A
C116        H119   1.081   1_655  S
C120        C121   1.385       .  A
C120        C125   1.460       .  A
C120        C155   1.509       .  S
C121        C122   1.383       .  A
C121        H126   1.085       .  S
C122        C123   1.408       .  A
C122        C301   1.501       .  S
C123        C124   1.433       .  A
C123        H127   1.081       .  S
C124        C125   1.451       .  A
C125        H128   1.082       .  S
C129        C130   1.458       .  A
C129        C134   1.390       .  A
C130        C131   1.451       .  A
C130        H135   1.080       .  S
C131        C132   1.425       .  A
C132        C133   1.402       .  A
C132        H136   1.083       .  S
C133        C134   1.388       .  A
C133        C281   1.479       .  S
C134        H137   1.086       .  S
C138        C321   1.483       .  S
C138        N139   1.353       .  A
C138        N143   1.349       .  A
N139        C140   1.350   1_545  A
C140        C292   1.470       .  S
C140        N141   1.362       .  A
N141        C142   1.353   1_565  A
C142        C312   1.470       .  S
C142        N143   1.360       .  A
O144       Cr162   2.113       .  S
O144        C152   1.282       .  A
O145       Cr162   1.971       .  S
O145        C146   1.249       .  A
C146        O147   1.284       .  A
O147       Cr163   2.156       .  S
O148       Cr163   2.021       .  S
O148        C609   1.266       .  A
C149        C188   1.530       .  S
C149        O608   1.267       .  A
C149        O610   1.280       .  A
O150       Cr164   2.046       .  S
O150        C609   1.282       .  A
O151       Cr164   1.957       .  S
O151        C152   1.261       .  A
C152       C1953   1.534       .  S
O153       Cr162   2.007       .  S
O153        C161   1.266       .  A
O154       Cr162   2.131       .  S
O154        C155   1.300       .  A
C155        O156   1.249       .  A
O156       Cr163   1.931       .  S
O157       Cr163   2.125       .  S
O157        C158   1.298       .  A
C158        O159   1.266       .  A
O159       Cr164   1.991       .  S
O160       Cr164   2.046       .  S
O160        C161   1.283       .  A
C161        C166   1.523       .  S
Cr162       O165   1.781       .  S
Cr163       O165   1.817       .  S
Cr164       O165   1.767       .  S
C166        C167   1.441       .  A
C166        C171   1.395       .  A
C167        C168   1.442       .  A
C167        H172   1.082       .  S
C168        C169   1.421       .  A
C168        C204   1.531       .  S
C169        C170   1.400       .  A
C169        H173   1.080       .  S
C170        C171   1.400       .  A
C170        C272   1.516       .  S
C171        H174   1.076       .  S
C175        C176   1.389       .  A
C175        C180   1.462       .  A
C175       C2056   1.536       .  S
C176        C177   1.391       .  A
C176        H181   1.084       .  S
C177        C178   1.382       .  A
C177        C252   1.461       .  S
C178        C179   1.401       .  A
C178        H182   1.083       .  S
C179        C180   1.465       .  A
C180        H183   1.082       .  S
C184        C185   1.395       .  A
C184        C189   1.466       .  A
C185        C186   1.396       .  A
C185        H190   1.082       .  S
C186        C187   1.355       .  A
C186        C232   1.456       .  S
C187        C188   1.377       .  A
C187        H191   1.066       .  S
C188        C189   1.457       .  A
C189        H192   1.067       .  S
C193        C241   1.483       .  S
C193        N198   1.357   1_554  A
C193       N1114   1.365       .  A
N194        C195   1.352       .  A
N194       C1113   1.364       .  A
C195        C261   1.474       .  S
C195       N1116   1.342       .  A
N196        C197   1.350   1_554  A
N196       C1115   1.341       .  A
C197        C221   1.476       .  S
C197        N198   1.347       .  A
O199       Cr217   2.171       .  S
O199       C1127   1.292       .  A
O200       Cr217   2.046       .  S
O200        C201   1.278       .  A
C201        O202   1.270       .  A
O202       Cr218   2.043       .  S
O203      Cr1138   1.957   1_545  S
O203        C204   1.250       .  A
C204        O205   1.279       .  A
O205       Cr219   2.127       .  S
O206       Cr219   1.941       .  S
O206        C207   1.250       .  A
C207       O1119   1.292   1_545  A
O208       Cr217   1.947       .  S
O208        C216   1.257       .  A
O209       Cr217   2.100       .  S
O209        C210   1.299       .  A
C210        O211   1.265       .  A
O211       Cr218   1.979       .  S
O212      Cr1138   2.078   1_545  S
O212        C213   1.292       .  A
C213       C1896   1.529       .  S
C213        O214   1.262       .  A
O214       Cr219   1.982       .  S
O215      Cr2979   2.146       .  S
O215       C2056   1.298       .  A
C216       C2015   1.536       .  S
C216       O2055   1.298       .  A
Cr217       O220   1.796       .  S
Cr218      O1123   1.957       .  S
Cr218      O1132   2.081       .  S
Cr218       O220   1.785       .  S
Cr219      O2975   2.144   1_545  S
Cr219      O1140   1.807   1_545  S
O220      Cr1139   1.808       .  S
C221        C222   1.398       .  A
C221        C686   1.415   1_556  A
C222        C223   1.375   1_556  A
C222       Br238   1.909       .  S
C223        C684   1.403       .  A
C223        H227   1.074       .  S
C224        C225   1.402       .  A
C224        C683   1.404       .  A
C224        C228   1.482       .  S
C225        C226   1.400       .  A
C225       Br237   1.903       .  S
C226        C681   1.412       .  A
C226        H229   1.079       .  S
C228        C230   1.410       .  A
C228        C234   1.417       .  A
C230        C231   1.401       .  A
C230        H235   1.073       .  S
C231        C232   1.375       .  A
C231       Br239   1.906       .  S
C232        C233   1.399       .  A
C233        C234   1.397       .  A
C233        H236   1.083       .  S
C234       Br240   1.918       .  S
C241        C242   1.413       .  A
C241        C246   1.401       .  A
C242        C243   1.392       .  A
C242       Br258   1.882       .  S
C243        C244   1.393       .  A
C243        H247   1.080       .  S
C244        C245   1.415       .  A
C244        C248   1.469       .  S
C245        C246   1.394       .  A
C245       Br257   1.902       .  S
C246       H1169   1.081       .  S
C248        C250   1.402       .  A
C248        C254   1.406       .  A
H249       C1166   1.081   1_545  S
C250        C251   1.390       .  A
C250        H255   1.084       .  S
C251        C252   1.404       .  A
C251       Br259   1.918       .  S
C252        C253   1.403       .  A
C253        C254   1.395       .  A
C253        H256   1.084       .  S
C254       Br260   1.909       .  S
C261        C262   1.394   1_565  A
C261        C266   1.406       .  A
C262        C263   1.395       .  A
C262       Br278   1.899       .  S
C263        C264   1.407   1_545  A
C263        H267   1.078       .  S
C264        C265   1.413       .  A
C264        C268   1.491   1_565  S
C265        C266   1.398       .  A
C265       Br277   1.920       .  S
C266       H1189   1.084       .  S
C268        C270   1.403   1_545  A
C268        C274   1.409       .  A
H269       C1186   1.084       .  S
C270        C271   1.405   1_565  A
C270        H275   1.083       .  S
C271        C272   1.423       .  A
C271       Br279   1.912   1_545  S
C272        C273   1.411       .  A
C273        C274   1.390       .  A
C273        H276   1.076       .  S
C274       Br280   1.920       .  S
C281        C282   1.409       .  A
C281        C286   1.401       .  A
C282        C283   1.392       .  A
C282       Br298   1.893       .  S
C283        C284   1.399       .  A
C283        H287   1.085       .  S
C284        C285   1.419       .  A
C284        C288   1.482       .  S
C285        C286   1.402       .  A
C285      Br1217   1.923       .  S
C286        H289   1.084       .  S
C288        C290   1.415       .  A
C288       C1214   1.411       .  A
C290        C291   1.396       .  A
C290        H295   1.081       .  S
C291       C1212   1.394       .  A
C291       Br299   1.912       .  S
C292        C293   1.405   1_565  A
C292       C1211   1.393       .  A
C293        C294   1.395       .  A
C293        H296   1.083       .  S
C294       C1208   1.411       .  A
C294       Br300   1.914       .  S
Br297      C1205   1.922       .  S
C301        C302   1.424       .  A
C301        C306   1.411       .  A
C302        C303   1.384       .  A
C302       Br318   1.927       .  S
C303        C304   1.391       .  A
C303        H307   1.076       .  S
C304        C305   1.408       .  A
C304        C308   1.485       .  S
C305        C306   1.408       .  A
C305       Br317   1.917       .  S
C306        H309   1.072       .  S
C308        C310   1.405       .  A
C308        C314   1.425       .  A
C310        C311   1.403       .  A
C310        H315   1.081       .  S
C311        C312   1.405       .  A
C311       Br319   1.912   1_545  S
C312        C313   1.389       .  A
C313        C314   1.386       .  A
C313        H316   1.082       .  S
C314       Br320   1.924       .  S
C321        C322   1.415       .  A
C321        C326   1.401       .  A
C322        C323   1.399       .  A
C322       Br338   1.895       .  S
C323        C324   1.394       .  A
C323        H327   1.083       .  S
C324        C325   1.404       .  A
C324        C328   1.459       .  S
C325        C326   1.376       .  A
C325       Br337   1.909       .  S
C326        H329   1.081       .  S
C328        C330   1.396       .  A
C328        C334   1.398       .  A
C330        C331   1.377       .  A
C330        H335   1.085       .  S
C331        C332   1.410       .  A
C331       Br799   1.921       .  S
C332        C333   1.408       .  A
C332       C1955   1.464       .  S
C333        C334   1.400       .  A
C333       H2176   1.080       .  S
C334       Br340   1.907       .  S
H336       C2173   1.080       .  S
Br339       C791   1.922       .  S
C341        C342   1.409       .  A
C341        C346   1.403       .  A
C342        C343   1.386       .  A
C342       Br358   1.928       .  S
C343        C344   1.401       .  A
C343        H347   1.081       .  S
C344        C345   1.401       .  A
C344        C348   1.458       .  S
C345        C346   1.400       .  A
C345       Br357   1.913       .  S
C346        H349   1.082       .  S
C348        C350   1.397       .  A
C348        C354   1.391       .  A
C350        C351   1.397       .  A
C350        H355   1.080       .  S
C351        C352   1.417       .  A
C351       Br359   1.911       .  S
C352        C353   1.405       .  A
C353        C354   1.402       .  A
C353        H356   1.076       .  S
C354       Br360   1.908       .  S
C361        C362   1.416       .  A
C361        C366   1.425       .  A
C362        C363   1.389       .  A
C362       Br378   1.914       .  S
C363        C364   1.407       .  A
C363        H367   1.081       .  S
C364        C365   1.390       .  A
C364        C368   1.479       .  S
C365        C366   1.395       .  A
C365       Br377   1.914       .  S
C366        H369   1.082       .  S
C368        C370   1.397   1_455  A
C368        C374   1.404   1_455  A
C370        C371   1.399       .  A
C370        H375   1.081   1_655  S
C371       C2212   1.410       .  A
C371       Br379   1.919       .  S
C372        C373   1.409       .  A
C372       C2211   1.410       .  A
C373       C2214   1.398       .  A
C373        H376   1.079       .  S
C374       C2213   1.398       .  A
C374       Br380   1.918   1_655  S
C381        C382   1.396       .  A
C381        C386   1.400       .  A
C382       C2223   1.385       .  A
C382      Br2238   1.916       .  S
C383       C2222   1.385       .  A
C383       C2224   1.412       .  A
C383        H387   1.079       .  S
C384        C385   1.411       .  A
C384       C2223   1.412       .  A
C384        C388   1.486       .  S
C385        C386   1.397       .  A
C385       Br397   1.913       .  S
C386        H389   1.083       .  S
C388       C2230   1.415       .  A
C388       C2234   1.398       .  A
C390        C391   1.404       .  A
C390       C2228   1.415       .  A
C390        H395   1.080       .  S
C391        C392   1.399       .  A
C391      Br1319   1.890       .  S
C392        C393   1.393       .  A
C393        C394   1.375       .  A
C393        H396   1.070   1_655  S
C394       C2228   1.399       .  A
C394      Br2240   1.897       .  S
Br398      C2222   1.917       .  S
Br399      C1311   1.894       .  S
Br400      C2234   1.898       .  S
C401        C402   1.412       .  A
C401        C406   1.400       .  A
C402        C403   1.397       .  A
C402       Br418   1.908       .  S
C403        C404   1.397       .  A
C403        H407   1.083       .  S
C404        C405   1.402       .  A
C404        C408   1.467       .  S
C405        C406   1.390       .  A
C405       Br417   1.897       .  S
C406        H409   1.084       .  S
C408        C414   1.395       .  A
C408       C2250   1.402       .  A
C410        C411   1.399       .  A
C410       C2248   1.403       .  A
C410        H415   1.082       .  S
C411        C412   1.408       .  A
C411       Br419   1.908       .  S
C412        C413   1.414       .  A
C413       C2254   1.393       .  A
C413        H416   1.084       .  S
C414       C2253   1.393   1_455  A
C414       Br420   1.913       .  S
C421        C422   1.405       .  A
C421        C426   1.409       .  A
C422        C423   1.397       .  A
C422       Br438   1.913       .  S
C423        C424   1.406       .  A
C423        H427   1.085       .  S
C424        C425   1.401       .  A
C424        C428   1.470       .  S
C425        C426   1.397       .  A
C425       Br437   1.920       .  S
C426        H429   1.082       .  S
C428        C430   1.406       .  A
C428        C434   1.417       .  A
C430        C431   1.403       .  A
C430        H435   1.083       .  S
C431        C432   1.409       .  A
C431       Br439   1.911       .  S
C432        C433   1.400       .  A
C433        C434   1.393       .  A
C433        H436   1.077       .  S
C434       Br440   1.924       .  S
C441        C442   1.404       .  A
C441        C446   1.409       .  A
C442        C443   1.402       .  A
C442       Br458   1.920       .  S
C443        C444   1.405       .  A
C443        H447   1.071       .  S
C444        C445   1.413       .  A
C444        C448   1.525       .  S
C445        C446   1.408       .  A
C445       Br457   1.914       .  S
C446        H449   1.083       .  S
C448        C450   1.410       .  A
C448        C454   1.404       .  A
C450        C451   1.403       .  A
C450        H455   1.081       .  S
C451        C452   1.415       .  A
C451       Br459   1.893       .  S
C452        C453   1.411       .  A
C453        C454   1.395       .  A
C453        H456   1.072       .  S
C454       Br460   1.897       .  S
C461        C462   1.408       .  A
C461        C466   1.463       .  A
C461        C618   1.546       .  S
C462        C463   1.405       .  A
C462        H467   1.082       .  S
C463        C464   1.389       .  A
C463        C912   1.507       .  S
C464        C465   1.394       .  A
C464        H468   1.061       .  S
C465        C466   1.456       .  A
C465        C557   1.563       .  S
C470        C471   1.382       .  A
C470        C475   1.465       .  A
C470        C560   1.522       .  S
C471        C472   1.383       .  A
C471        H476   1.084       .  S
C472        C473   1.395       .  A
C472        C881   1.480       .  S
C473       C2314   1.426       .  A
C473       H2317   1.082       .  S
C474       C2313   1.427       .  A
C474       C2315   1.457       .  A
C474        C667   1.567       .  S
C475       C2314   1.457       .  A
C475       H3238   1.082       .  S
H477       C2313   1.082       .  S
H478       C3235   1.082       .  S
C479        C480   1.464       .  A
C479        C484   1.406       .  A
C479        C670   1.534       .  S
C480        C481   1.451       .  A
C480        H485   1.081       .  S
C481        C482   1.407       .  A
C481        C606   1.552       .  S
C482        C483   1.389       .  A
C482        H486   1.085       .  S
C483        C484   1.399       .  A
C483        C872   1.486       .  S
C484        H487   1.084       .  S
C488        C861   1.475       .  S
C488        N489   1.359       .  A
C488        N493   1.351       .  A
N489        C490   1.355       .  A
C490        C892   1.495       .  S
C490        N491   1.359       .  A
N491        C492   1.356       .  A
C492        C901   1.452       .  S
C492        N493   1.355       .  A
O494       Cr512   2.078       .  S
O494        C502   1.271       .  A
O495       Cr512   1.974       .  S
O495        C496   1.248       .  A
C496        C529   1.526       .  S
C496        O497   1.274       .  A
O497       Cr513   2.120       .  S
O498       Cr513   1.960       .  S
O498        C499   1.255       .  A
C499        C584   1.569       .  S
C499        O500   1.301       .  A
O500       Cr514   2.180       .  S
O501       Cr514   1.978       .  S
O501        C502   1.264       .  A
C502        C639   1.525       .  S
O503       Cr512   1.946       .  S
O503        C511   1.260       .  A
O504       Cr512   2.116       .  S
O504        C505   1.301       .  A
C505        C644   1.536       .  S
C505        O506   1.257       .  A
O506       Cr513   1.979       .  S
O507       Cr513   2.065       .  S
O507        C508   1.291       .  A
C508        C534   1.537       .  S
C508        O509   1.258       .  A
O509       Cr514   2.000       .  S
O510       Cr514   2.135       .  S
O510        C511   1.307       .  A
C511        C589   1.520       .  S
Cr512       O515   1.759       .  S
Cr513       O515   1.780       .  S
Cr514       O515   1.778       .  S
C516       C1437   1.397   1_455  A
C516        C521   1.447       .  A
C516       C2513   1.528       .  S
C517       C1436   1.397   1_655  A
C517        C518   1.384       .  A
C517        H522   1.083       .  S
C518       C1439   1.406   1_655  A
C518        C852   1.478       .  S
C519       C1438   1.406   1_455  A
C519        C520   1.418       .  A
C519        H523   1.082       .  S
C520        C521   1.449       .  A
C520        C554   1.531       .  S
C521        H524   1.080       .  S
C525        C526   1.410       .  A
C525        C530   1.449       .  A
C525        C566   1.529       .  S
C526        C527   1.408       .  A
C526        H531   1.074       .  S
C527        C528   1.393       .  A
C527        C821   1.502       .  S
C528        C529   1.394       .  A
C528        H532   1.080       .  S
C529        C530   1.427       .  A
C530        H533   1.081       .  S
C534        C535   1.453       .  A
C534        C539   1.395       .  A
C535        C536   1.454       .  A
C535        H540   1.076       .  S
C536        C537   1.405       .  A
C536        C661   1.541       .  S
C537        C538   1.385       .  A
C537        H541   1.058       .  S
C538        C539   1.390       .  A
C538        C812   1.504       .  S
C539        H542   1.077       .  S
C543        C841   1.456       .  S
C543        N544   1.361       .  A
C545        C832   1.469       .  S
C545        N546   1.336       .  A
N546        C547   1.356       .  A
C547        C801   1.444       .  S
C547        N548   1.351       .  A
O549       Cr567   2.127       .  S
O550       Cr567   1.943       .  S
O550       C1471   1.252       .  A
C551        C591   1.559       .  S
C551       O1470   1.252       .  A
C551        O552   1.297       .  A
O552      Cr1488   2.165       .  S
O553        C554   1.259       .  A
C554        O555   1.281       .  A
O555       Cr569   2.098       .  S
O556       Cr569   1.966       .  S
O556        C557   1.267       .  A
O558       Cr567   1.996       .  S
O558        C566   1.259       .  A
O559       Cr567   2.106       .  S
O559        C560   1.296       .  A
C560        O561   1.256       .  A
O561       Cr568   1.962       .  S
O562        C563   1.303       .  A
C563        C571   1.529   1_455  S
C563        O564   1.252       .  A
O564       Cr569   1.928       .  S
O565        C566   1.283       .  A
Cr567       O570   1.782       .  S
Cr568      O1472   2.165       .  S
Cr568       O570   1.798       .  S
C571        C572   1.456       .  A
C572        C573   1.458       .  A
C572        H577   1.082       .  S
C573       C2414   1.405       .  A
C573       C2452   1.528       .  S
C574       C2413   1.405       .  A
C574       C1955   1.380       .  A
C574        H578   1.086       .  S
C575       C1954   1.381   1_556  A
C575        C576   1.392       .  A
C575       C2632   1.461       .  S
C576        H579   1.082   1_655  S
C580        C581   1.386       .  A
C580        C585   1.459       .  A
C580        C615   1.509       .  S
C581        C582   1.384       .  A
C581        H586   1.085       .  S
C582        C583   1.410       .  A
C582        C761   1.504       .  S
C583        C584   1.433       .  A
C583        H587   1.081       .  S
C584        C585   1.450       .  A
C585        H588   1.082       .  S
C589        C590   1.461       .  A
C589        C594   1.389       .  A
C590        C591   1.453       .  A
C590        H595   1.080       .  S
C591        C592   1.424       .  A
C592        C593   1.401       .  A
C592        H596   1.083       .  S
C593        C594   1.388       .  A
C593        C741   1.478       .  S
C594        H597   1.085       .  S
C598        C781   1.482       .  S
C598        N599   1.352       .  A
C598        N603   1.349       .  A
N599        C600   1.348   1_545  A
C600        C752   1.470       .  S
C600        N601   1.362       .  A
N601        C602   1.353   1_565  A
C602        C772   1.470       .  S
C602        N603   1.359       .  A
O604       Cr622   2.105       .  S
O604        C612   1.279       .  A
O605       Cr622   1.968       .  S
O605        C606   1.247       .  A
C606        O607   1.285       .  A
O607       Cr623   2.156       .  S
O608       Cr623   2.025       .  S
C609        C648   1.527   1_554  S
O610       Cr624   2.047       .  S
O611       Cr624   1.955       .  S
O611        C612   1.261       .  A
C612       C2413   1.528       .  S
O613       Cr622   2.007       .  S
O613        C621   1.267       .  A
O614       Cr622   2.126       .  S
O614        C615   1.299       .  A
C615        O616   1.250       .  A
O616       Cr623   1.936       .  S
O617       Cr623   2.124       .  S
O617        C618   1.299       .  A
C618        O619   1.266       .  A
O619       Cr624   1.986       .  S
O620       Cr624   2.048       .  S
O620        C621   1.283       .  A
C621        C626   1.522       .  S
Cr622       O625   1.781       .  S
Cr623       O625   1.815       .  S
Cr624       O625   1.765       .  S
C626        C627   1.438       .  A
C626        C631   1.396       .  A
C627        C628   1.440       .  A
C627        H632   1.082       .  S
C628        C629   1.422       .  A
C628        C664   1.531       .  S
C629        C630   1.402       .  A
C629        H633   1.079       .  S
C630        C631   1.402       .  A
C630        C732   1.521       .  S
C631        H634   1.077       .  S
C635        C636   1.389       .  A
C635        C640   1.456       .  A
C635       C2516   1.525       .  S
C636        C637   1.390       .  A
C636        H641   1.084       .  S
C637        C638   1.379       .  A
C637        C712   1.459       .  S
C638        C639   1.402       .  A
C638        H642   1.083       .  S
C639        C640   1.458       .  A
C640        H643   1.082       .  S
C644        C645   1.392       .  A
C644        C649   1.459       .  A
C645        C646   1.396   1_556  A
C645        H650   1.083       .  S
C646        C647   1.356       .  A
C646        C692   1.458       .  S
C647        C648   1.380   1_554  A
C647        H651   1.067       .  S
C648        C649   1.456       .  A
C649        H652   1.071       .  S
C653        C701   1.485       .  S
C653       N1574   1.366       .  A
C653        N658   1.358       .  A
N654       C1573   1.367       .  A
N654        C655   1.353       .  A
C655        C721   1.480       .  S
C655       N1576   1.339       .  A
N656       C1575   1.339       .  A
N656        C657   1.349       .  A
C657        C681   1.472       .  S
C657        N658   1.348       .  A
O659       Cr677   2.165       .  S
O659       C1587   1.290       .  A
O660       Cr677   2.045       .  S
O660        C661   1.280       .  A
C661        O662   1.269       .  A
O662       Cr678   2.041       .  S
O663      Cr1598   1.953   1_545  S
O663        C664   1.249       .  A
C664        O665   1.280       .  A
O665       Cr679   2.126       .  S
O666       Cr679   1.936       .  S
O666        C667   1.250       .  A
C667       O1579   1.290   1_545  A
O668       Cr677   1.946       .  S
O668        C676   1.257       .  A
O669       Cr677   2.088       .  S
O669        C670   1.296       .  A
C670        O671   1.264       .  A
O671       Cr678   1.971       .  S
O672      Cr1598   2.081   1_545  S
O672        C673   1.293       .  A
C673       C2356   1.528       .  S
C673        O674   1.260       .  A
O674       Cr679   1.977       .  S
O675      Cr3439   2.134       .  S
O675       C2516   1.295       .  A
C676       C2475   1.525       .  S
C676       O2515   1.295       .  A
Cr677       O680   1.797       .  S
Cr678      O1583   1.955       .  S
Cr678      O1592   2.080       .  S
Cr678       O680   1.782       .  S
Cr679      O3435   2.131   1_545  S
Cr679      O1600   1.805   1_545  S
O680      Cr1599   1.806       .  S
C681        C682   1.397       .  A
C682        C683   1.375       .  A
C682       Br698   1.908       .  S
C683        H687   1.075       .  S
C684        C685   1.401       .  A
C684        C688   1.483       .  S
C685        C686   1.402       .  A
C685       Br697   1.907       .  S
C686        H689   1.077       .  S
C688        C690   1.409       .  A
C688        C694   1.415       .  A
C690        C691   1.403       .  A
C690        H695   1.070       .  S
C691        C692   1.375       .  A
C691       Br699   1.912   1_554  S
C692        C693   1.400       .  A
C693        C694   1.398       .  A
C693        H696   1.082       .  S
C694       Br700   1.916       .  S
C701        C702   1.412       .  A
C701        C706   1.401       .  A
C702        C703   1.393       .  A
C702       Br718   1.879       .  S
C703        C704   1.393       .  A
C703        H707   1.080       .  S
C704        C705   1.414       .  A
C704        C708   1.469       .  S
C705        C706   1.393       .  A
C705       Br717   1.900       .  S
C706       H1629   1.079       .  S
C708        C710   1.403       .  A
C708        C714   1.403       .  A
H709       C1626   1.079   1_545  S
C710        C711   1.391       .  A
C710        H715   1.085       .  S
C711        C712   1.405       .  A
C711       Br719   1.920       .  S
C712        C713   1.401       .  A
C713        C714   1.393       .  A
C713        H716   1.084       .  S
C714       Br720   1.906       .  S
C721        C722   1.393   1_565  A
C721        C726   1.406       .  A
C722        C723   1.400       .  A
C722       Br738   1.897       .  S
C723        C724   1.410   1_545  A
C723        H727   1.078       .  S
C724        C725   1.414       .  A
C724        C728   1.497   1_565  S
C725        C726   1.398       .  A
C725       Br737   1.921       .  S
C726       H1649   1.084       .  S
C728        C730   1.404   1_545  A
C728        C734   1.410       .  A
H729       C1646   1.084       .  S
C730        C731   1.407   1_565  A
C730        H735   1.083       .  S
C731        C732   1.424       .  A
C731       Br739   1.915   1_545  S
C732        C733   1.412       .  A
C733        C734   1.394       .  A
C733        H736   1.077       .  S
C734       Br740   1.919       .  S
C741        C742   1.407       .  A
C741        C746   1.401       .  A
C742        C743   1.391       .  A
C742       Br758   1.890       .  S
C743        C744   1.398       .  A
C743        H747   1.085       .  S
C744        C745   1.421       .  A
C744        C748   1.482       .  S
C745        C746   1.403       .  A
C745      Br1677   1.922       .  S
C746        H749   1.084       .  S
C748        C750   1.415       .  A
C748       C1674   1.410       .  A
C750        C751   1.394       .  A
C750        H755   1.080       .  S
C751       C1672   1.393       .  A
C751       Br759   1.911       .  S
C752       C1671   1.392       .  A
C752        C753   1.404   1_565  A
C753        C754   1.395       .  A
C753        H756   1.083       .  S
C754       C1668   1.412   1_545  A
C754       Br760   1.910       .  S
Br757      C1665   1.923       .  S
C761        C762   1.423       .  A
C761        C766   1.411       .  A
C762        C763   1.386       .  A
C762       Br778   1.925       .  S
C763        C764   1.391       .  A
C763        H767   1.075       .  S
C764        C765   1.407       .  A
C764        C768   1.486       .  S
C765        C766   1.410       .  A
C765       Br777   1.918       .  S
C766        H769   1.070       .  S
C768        C770   1.406       .  A
C768        C774   1.425       .  A
C770        C771   1.404       .  A
C770        H775   1.082       .  S
C771        C772   1.404       .  A
C771       Br779   1.910   1_545  S
C772        C773   1.388       .  A
C773        C774   1.386       .  A
C773        H776   1.082       .  S
C774       Br780   1.921       .  S
C781        C782   1.415       .  A
C781        C786   1.402       .  A
C782        C783   1.396       .  A
C782       Br798   1.892       .  S
C783        C784   1.392       .  A
C783        H787   1.083       .  S
C784        C785   1.402       .  A
C784        C788   1.455       .  S
C785        C786   1.376       .  A
C785       Br797   1.911       .  S
C786        H789   1.081       .  S
C788        C790   1.397       .  A
C788        C794   1.398       .  A
C790        C791   1.379       .  A
C790        H795   1.085       .  S
C791        C792   1.410       .  A
C792        C793   1.407       .  A
C792       C2415   1.461       .  S
C793        C794   1.399       .  A
C793       H2636   1.080       .  S
C794       Br800   1.908       .  S
H796       C2633   1.080       .  S
C801        C802   1.401       .  A
C801        C806   1.400       .  A
C802        C803   1.385       .  A
C802       Br818   1.925       .  S
C803        C804   1.404       .  A
C803        H807   1.077       .  S
C804        C805   1.401       .  A
C804        C808   1.457       .  S
C805        C806   1.395       .  A
C805       Br817   1.903       .  S
C806        H809   1.083       .  S
C808        C810   1.398       .  A
C808        C814   1.390       .  A
C810        C811   1.398       .  A
C810        H815   1.082       .  S
C811        C812   1.415       .  A
C811       Br819   1.907       .  S
C812        C813   1.408       .  A
C813        C814   1.403       .  A
C813        H816   1.075       .  S
C814       Br820   1.911       .  S
C821        C822   1.413       .  A
C821        C826   1.425       .  A
C822        C823   1.389       .  A
C822       Br838   1.913       .  S
C823        C824   1.408       .  A
C823        H827   1.082       .  S
C824        C825   1.390       .  A
C824        C828   1.478       .  S
C825        C826   1.395       .  A
C825       Br837   1.914       .  S
C826        H829   1.083       .  S
C828        C830   1.396   1_455  A
C828        C834   1.405   1_455  A
C830        C831   1.398       .  A
C830        H835   1.081   1_655  S
C831       C2672   1.407       .  A
C831       Br839   1.912       .  S
C832       C2671   1.406       .  A
C832        C833   1.409       .  A
C833       C2674   1.399       .  A
C833        H836   1.081       .  S
C834       C2673   1.399       .  A
C834       Br840   1.920   1_655  S
C841        C842   1.399       .  A
C841        C846   1.401       .  A
C842       C2683   1.384       .  A
C842      Br2698   1.917       .  S
C843       C2682   1.384       .  A
C843       C2684   1.410       .  A
C843        H847   1.077       .  S
C844       C2683   1.410       .  A
C844        C845   1.414       .  A
C844        C848   1.495       .  S
C845        C846   1.402       .  A
C845       Br857   1.912       .  S
C846        H849   1.083       .  S
C848       C2690   1.416       .  A
C848       C2694   1.405       .  A
C850       C2688   1.416       .  A
C850        C851   1.405       .  A
C850        H855   1.080       .  S
C851        C852   1.400       .  A
C851      Br1779   1.895       .  S
C852        C853   1.394       .  A
C853        C854   1.377       .  A
C853        H856   1.069   1_655  S
C854       C2688   1.405       .  A
C854      Br2700   1.902       .  S
Br858      C2682   1.917       .  S
Br859      C1771   1.895       .  S
Br860      C2694   1.902       .  S
C861        C862   1.411       .  A
C861        C866   1.400       .  A
C862        C863   1.395       .  A
C862       Br878   1.903       .  S
C863        C864   1.395       .  A
C863        H867   1.084       .  S
C864        C865   1.403       .  A
C864        C868   1.467       .  S
C865        C866   1.391       .  A
C865       Br877   1.893       .  S
C866        H869   1.084       .  S
C868       C2710   1.403       .  A
C868        C874   1.396       .  A
C870       C2708   1.403       .  A
C870        C871   1.399       .  A
C870        H875   1.082       .  S
C871        C872   1.408       .  A
C871       Br879   1.908       .  S
C872        C873   1.413       .  A
C873       C2714   1.393       .  A
C873        H876   1.083       .  S
C874       C2713   1.393   1_455  A
C874       Br880   1.913       .  S
C881        C882   1.403       .  A
C881        C886   1.408       .  A
C882        C883   1.397       .  A
C882       Br898   1.909       .  S
C883        C884   1.406       .  A
C883        H887   1.084       .  S
C884        C885   1.401       .  A
C884        C888   1.471       .  S
C885        C886   1.395       .  A
C885       Br897   1.913       .  S
C886        H889   1.083       .  S
C888        C890   1.406       .  A
C888        C894   1.417       .  A
C890        C891   1.404       .  A
C890        H895   1.083       .  S
C891        C892   1.409       .  A
C891       Br899   1.912       .  S
C892        C893   1.400       .  A
C893        C894   1.393       .  A
C893        H896   1.075       .  S
C894       Br900   1.922       .  S
C901        C902   1.404       .  A
C901        C906   1.409       .  A
C902        C903   1.402       .  A
C902       Br918   1.921       .  S
C903        C904   1.405       .  A
C903        H907   1.072       .  S
C904        C905   1.413       .  A
C904        C908   1.525       .  S
C905        C906   1.409       .  A
C905       Br917   1.914       .  S
C906        H909   1.083       .  S
C908        C910   1.411       .  A
C908        C914   1.407       .  A
C910        C911   1.402       .  A
C910        H915   1.082       .  S
C911        C912   1.411       .  A
C911       Br919   1.893       .  S
C912        C913   1.409       .  A
C913        C914   1.395       .  A
C913        H916   1.073       .  S
C914       Br920   1.900       .  S
C921        C922   1.408       .  A
C921        C926   1.461       .  A
C921       C1078   1.548       .  S
C922        C923   1.407       .  A
C922        H927   1.081       .  S
C923        C924   1.390       .  A
C923       C1372   1.507       .  S
C924        C925   1.395       .  A
C924        H928   1.066       .  S
C925        C926   1.452       .  A
C925       C1017   1.556       .  S
C926       H1389   1.071       .  S
H929       C1386   1.072       .  S
C930        C931   1.384       .  A
C930        C935   1.466       .  A
C930       C1020   1.526       .  S
C931        C932   1.386       .  A
C931        H936   1.085       .  S
C932        C933   1.397       .  A
C932       C1341   1.484       .  S
C933       C2774   1.428       .  A
C933       H2777   1.081       .  S
C934       C2773   1.428       .  A
C934       C2775   1.458       .  A
C934       C1127   1.571       .  S
C935       C2774   1.458       .  A
C935       H1858   1.082       .  S
H937       C2773   1.081       .  S
H938       C1855   1.082       .  S
C939        C940   1.468       .  A
C939        C944   1.408       .  A
C939       C1130   1.544       .  S
C940        C941   1.455       .  A
C940        H945   1.082       .  S
C941        C942   1.404       .  A
C941       C1066   1.555       .  S
C942        C943   1.389       .  A
C942        H946   1.084       .  S
C943        C944   1.402       .  A
C943       C1332   1.490       .  S
C944        H947   1.084       .  S
C948       C1321   1.473       .  S
C948        N949   1.358       .  A
C948        N953   1.350       .  A
N949        C950   1.355       .  A
C950       C1352   1.493       .  S
C950        N951   1.359       .  A
N951        C952   1.356       .  A
C952       C1361   1.451       .  S
C952        N953   1.354       .  A
O954       Cr972   2.086       .  S
O954        C962   1.273       .  A
O955       Cr972   1.981       .  S
O955        C956   1.248       .  A
C956        C989   1.527       .  S
C956        O957   1.274       .  A
O957       Cr973   2.123       .  S
O958       Cr973   1.961       .  S
O958        C959   1.259       .  A
C959       C1044   1.569       .  S
C959        O960   1.302       .  A
O960       Cr974   2.175       .  S
O961       Cr974   1.987       .  S
O961        C962   1.265       .  A
C962       C1099   1.535       .  S
O963       Cr972   1.942       .  S
O963        C971   1.259       .  A
O964       Cr972   2.128       .  S
O964        C965   1.304       .  A
C965       C1104   1.546       .  S
C965        O966   1.259       .  A
O966       Cr973   1.988       .  S
O967       Cr973   2.060       .  S
O967        C968   1.289       .  A
C968        C994   1.539       .  S
C968        O969   1.258       .  A
O969       Cr974   2.007       .  S
O970       Cr974   2.129       .  S
O970        C971   1.305       .  A
C971       C1049   1.516       .  S
Cr972       O975   1.761       .  S
Cr973       O975   1.785       .  S
Cr974       O975   1.782       .  S
C976        C981   1.447       .  A
C976       C2973   1.530       .  S
C977        C978   1.386       .  A
C977        H982   1.082       .  S
C978       C1312   1.473       .  S
C979        C980   1.414       .  A
C979        H983   1.082       .  S
C980        C981   1.449       .  A
C980       C1014   1.524       .  S
C981        H984   1.080       .  S
C985        C986   1.408       .  A
C985        C990   1.449       .  A
C985       C1026   1.528       .  S
C986        C987   1.408       .  A
C986        H991   1.073       .  S
C987        C988   1.395       .  A
C987       C1281   1.509       .  S
C988        C989   1.396       .  A
C988        H992   1.075       .  S
C989        C990   1.429       .  A
C990        H993   1.082       .  S
C994        C995   1.455       .  A
C994        C999   1.393       .  A
C995        C996   1.457       .  A
C995       H1000   1.075       .  S
C996        C997   1.402       .  A
C996       C1121   1.540       .  S
C997        C998   1.379       .  A
C997       H1001   1.058       .  S
C998        C999   1.390       .  A
C998       C1272   1.499       .  S
C999       H1002   1.074       .  S
C1003      C1301   1.453       .  S
C1003      N1004   1.360   1_554  A
C1003      N1468   1.354   1_554  A
N1004      C1465   1.346       .  A
C1005      C1292   1.468       .  S
C1005      N1464   1.346       .  A
C1005      N1006   1.336       .  A
N1006      C1007   1.357       .  A
C1007      C1261   1.452       .  S
C1007      N1008   1.358       .  A
N1008      C1463   1.358       .  A
O1009     Cr1027   2.134       .  S
O1009      C1477   1.292       .  A
O1010     Cr1027   1.943       .  S
C1011      C1051   1.555       .  S
C1011      O1012   1.298       .  A
O1013     Cr1488   1.988   1_554  S
O1013      C1014   1.259       .  A
C1014      O1015   1.280       .  A
O1015     Cr1029   2.091       .  S
O1016     Cr1029   1.964       .  S
O1016      C1017   1.265       .  A
C1017      O1469   1.290   1_554  A
O1018     Cr1027   1.992       .  S
O1018      C1026   1.258       .  A
O1019     Cr1027   2.108       .  S
O1019      C1020   1.295       .  A
C1020      O1021   1.256       .  A
O1021     Cr1028   1.967       .  S
O1022     Cr1488   2.171       .  S
O1022      C1023   1.304       .  A
C1023      C1031   1.537   1_455  S
C1023      O1024   1.252       .  A
O1024     Cr1029   1.932   1_556  S
O1025     Cr1489   2.068       .  S
O1025      C1026   1.285       .  A
Cr1027     O1030   1.785       .  S
Cr1028     O1473   1.984       .  S
Cr1028     O1482   2.161       .  S
Cr1028     O1030   1.801       .  S
Cr1029     O1485   2.063   1_554  S
Cr1029     O1490   1.787   1_554  S
O1030     Cr1489   1.789       .  S
C1031      C1032   1.459   1_556  A
C1031      C1496   1.399       .  A
C1032      C1033   1.463       .  A
C1032      H1037   1.082       .  S
C1033      C2874   1.405   1_554  A
C1033      C2912   1.533       .  S
C1034      C2873   1.405   1_556  A
C1034      C3335   1.382       .  A
C1034      H1038   1.086       .  S
C1035      C3334   1.379       .  A
C1035      C1036   1.390       .  A
C1035      C3092   1.464       .  S
C1036      C1491   1.398       .  A
C1036      H1039   1.081   1_655  S
C1040      C1041   1.384       .  A
C1040      C1045   1.461       .  A
C1040      C1075   1.511       .  S
C1041      C1042   1.382       .  A
C1041      H1046   1.086       .  S
C1042      C1043   1.407       .  A
C1042      C1221   1.500       .  S
C1043      C1044   1.432       .  A
C1043      H1047   1.081       .  S
C1044      C1045   1.453       .  A
C1045      H1048   1.082       .  S
C1049      C1050   1.458       .  A
C1049      C1054   1.389       .  A
C1050      C1051   1.451   1_565  A
C1050      H1055   1.080       .  S
C1051      C1052   1.425       .  A
C1052      C1053   1.402       .  A
C1052      H1056   1.083       .  S
C1053      C1054   1.388   1_545  A
C1053      C1201   1.479       .  S
C1054      H1057   1.086       .  S
C1058      C1241   1.483       .  S
C1058      N1059   1.353       .  A
C1058      N1063   1.349       .  A
N1059      C1060   1.350       .  A
C1060      C1212   1.471       .  S
C1060      N1061   1.362       .  A
N1061      C1062   1.352       .  A
C1062      C1232   1.469       .  S
C1062      N1063   1.359       .  A
O1064     Cr1082   2.113       .  S
O1064      C1072   1.282       .  A
O1065     Cr1082   1.971       .  S
O1065      C1066   1.249       .  A
C1066      O1067   1.284       .  A
O1067     Cr1083   2.155       .  S
O1068     Cr1083   2.020       .  S
O1068      C1529   1.267       .  A
C1069      C1108   1.530       .  S
C1069      O1528   1.267       .  A
C1069      O1530   1.280       .  A
O1070     Cr1084   2.044       .  S
O1070      C1529   1.280       .  A
O1071     Cr1084   1.958       .  S
O1071      C1072   1.261       .  A
C1072      C2873   1.533       .  S
O1073     Cr1082   2.007       .  S
O1073      C1081   1.266       .  A
O1074     Cr1082   2.134       .  S
O1074      C1075   1.301       .  A
C1075      O1076   1.249       .  A
O1076     Cr1083   1.931       .  S
O1077     Cr1083   2.124       .  S
O1077      C1078   1.299       .  A
C1078      O1079   1.266       .  A
O1079     Cr1084   1.989       .  S
O1080     Cr1084   2.043       .  S
O1080      C1081   1.282       .  A
C1081      C1086   1.522       .  S
Cr1082     O1085   1.780       .  S
Cr1083     O1085   1.815       .  S
Cr1084     O1085   1.768       .  S
C1086      C1087   1.440       .  A
C1086      C1091   1.395       .  A
C1087      C1088   1.441       .  A
C1087      H1092   1.082       .  S
C1088      C1089   1.421       .  A
C1088      C1124   1.530       .  S
C1089      C1090   1.400       .  A
C1089      H1093   1.080       .  S
C1090      C1091   1.398       .  A
C1090      C1192   1.516       .  S
C1091      H1094   1.076       .  S
C1095      C1096   1.388       .  A
C1095      C1100   1.461       .  A
C1095      C2976   1.534       .  S
C1096      C1097   1.389       .  A
C1096      H1101   1.084       .  S
C1097      C1098   1.383       .  A
C1097      C1172   1.462       .  S
C1098      C1099   1.403       .  A
C1098      H1102   1.083       .  S
C1099      C1100   1.464       .  A
C1100      H1103   1.082       .  S
C1104      C1105   1.395       .  A
C1104      C1109   1.466       .  A
C1105      C1106   1.397       .  A
C1105      H1110   1.082       .  S
C1106      C1107   1.356       .  A
C1106      C1152   1.456       .  S
C1107      C1108   1.376       .  A
C1107      H1111   1.066       .  S
C1108      C1109   1.456       .  A
C1109      H1112   1.067       .  S
C1113      C1161   1.483       .  S
C1113      N1118   1.358   1_554  A
N1114      C1115   1.353       .  A
C1115      C1181   1.476       .  S
N1116      C1117   1.351   1_554  A
C1117      C1141   1.475       .  S
C1117      N1118   1.347       .  A
O1119     Cr1137   2.170       .  S
O1120     Cr1137   2.043       .  S
O1120      C1121   1.277       .  A
C1121      O1122   1.270       .  A
O1122     Cr1138   2.042       .  S
O1123      C1124   1.250       .  A
C1124      O1125   1.279       .  A
O1125     Cr1139   2.125       .  S
O1126     Cr1139   1.940       .  S
O1126      C1127   1.249       .  A
O1128     Cr1137   1.945       .  S
O1128      C1136   1.257       .  A
O1129     Cr1137   2.101       .  S
O1129      C1130   1.299       .  A
C1130      O1131   1.264       .  A
O1131     Cr1138   1.976       .  S
O1132      C1133   1.293       .  A
C1133      C2816   1.530       .  S
C1133      O1134   1.263       .  A
O1134     Cr1139   1.982       .  S
O1135     Cr2059   2.144   1_565  S
O1135      C2976   1.298       .  A
C1136      C2935   1.534       .  S
C1136      O2975   1.298       .  A
Cr1137     O1140   1.796       .  S
Cr1138     O1140   1.784       .  S
Cr1139     O2055   2.146       .  S
C1141      C1142   1.397       .  A
C1141      C1606   1.415   1_556  A
C1142      C1143   1.375   1_556  A
C1142     Br1158   1.909       .  S
C1143      C1604   1.403       .  A
C1143      H1147   1.073       .  S
C1144      C1603   1.405       .  A
C1144      C1145   1.403       .  A
C1144      C1148   1.483       .  S
C1145      C1146   1.400       .  A
C1145     Br1157   1.903       .  S
C1146      C1601   1.411       .  A
C1146      H1149   1.080       .  S
C1148      C1150   1.410       .  A
C1148      C1154   1.418       .  A
C1150      C1151   1.401       .  A
C1150      H1155   1.074       .  S
C1151      C1152   1.375       .  A
C1151     Br1159   1.906       .  S
C1152      C1153   1.400       .  A
C1153      C1154   1.397       .  A
C1153      H1156   1.083       .  S
C1154     Br1160   1.919       .  S
C1161      C1162   1.412       .  A
C1161      C1166   1.401       .  A
C1162      C1163   1.395       .  A
C1162     Br1178   1.885       .  S
C1163      C1164   1.395       .  A
C1163      H1167   1.080       .  S
C1164      C1165   1.415       .  A
C1164      C1168   1.471       .  S
C1165      C1166   1.393       .  A
C1165     Br1177   1.901       .  S
C1168      C1170   1.404       .  A
C1168      C1174   1.405       .  A
C1170      C1171   1.391       .  A
C1170      H1175   1.084       .  S
C1171      C1172   1.404       .  A
C1171     Br1179   1.918       .  S
C1172      C1173   1.403       .  A
C1173      C1174   1.395       .  A
C1173      H1176   1.084       .  S
C1174     Br1180   1.909       .  S
C1181      C1182   1.394       .  A
C1181      C1186   1.407       .  A
C1182      C1183   1.396       .  A
C1182     Br1198   1.900       .  S
C1183      C1184   1.408       .  A
C1183      H1187   1.077       .  S
C1184      C1185   1.412       .  A
C1184      C1188   1.491       .  S
C1185      C1186   1.398       .  A
C1185     Br1197   1.921       .  S
C1188      C1190   1.403       .  A
C1188      C1194   1.409       .  A
C1190      C1191   1.405       .  A
C1190      H1195   1.083       .  S
C1191      C1192   1.422       .  A
C1191     Br1199   1.913       .  S
C1192      C1193   1.412       .  A
C1193      C1194   1.391       .  A
C1193      H1196   1.077       .  S
C1194     Br1200   1.921       .  S
C1201      C1202   1.409   1_545  A
C1201      C1206   1.402       .  A
C1202      C1203   1.391       .  A
C1202     Br1218   1.892       .  S
C1203      C1204   1.398   1_565  A
C1203      H1207   1.085       .  S
C1204      C1205   1.419       .  A
C1204      C1208   1.481       .  S
C1205      C1206   1.402       .  A
C1206      H1209   1.084       .  S
C1208      C1210   1.416   1_545  A
C1210      C1211   1.396       .  A
C1210      H1215   1.081       .  S
C1211     Br1219   1.912       .  S
C1212      C1213   1.405       .  A
C1213      C1214   1.395       .  A
C1213      H1216   1.083       .  S
C1214     Br1220   1.913       .  S
C1221      C1222   1.424       .  A
C1221      C1226   1.411       .  A
C1222      C1223   1.383       .  A
C1222     Br1238   1.928       .  S
C1223      C1224   1.390       .  A
C1223      H1227   1.076       .  S
C1224      C1225   1.408       .  A
C1224      C1228   1.484       .  S
C1225      C1226   1.408       .  A
C1225     Br1237   1.917       .  S
C1226      H1229   1.072       .  S
C1228      C1230   1.405       .  A
C1228      C1234   1.425       .  A
C1230      C1231   1.403       .  A
C1230      H1235   1.081       .  S
C1231      C1232   1.405       .  A
C1231     Br1239   1.912       .  S
C1232      C1233   1.389       .  A
C1233      C1234   1.386       .  A
C1233      H1236   1.082       .  S
C1234     Br1240   1.925       .  S
C1241      C1242   1.415       .  A
C1241      C1246   1.400       .  A
C1242      C1243   1.399       .  A
C1242     Br1258   1.895       .  S
C1243      C1244   1.395       .  A
C1243      H1247   1.083       .  S
C1244      C1245   1.405       .  A
C1244      C1248   1.460       .  S
C1245      C1246   1.376       .  A
C1245     Br1257   1.908       .  S
C1246      H1249   1.082       .  S
C1248      C1250   1.396       .  A
C1248      C1254   1.398       .  A
C1250      C1251   1.378       .  A
C1250      H1255   1.085       .  S
C1251      C1252   1.411       .  A
C1251     Br1719   1.921       .  S
C1252      C1253   1.407       .  A
C1252      C2875   1.464       .  S
C1253      C1254   1.399       .  A
C1253      H3096   1.080       .  S
C1254     Br1260   1.906       .  S
H1256      C3093   1.080       .  S
Br1259     C1711   1.921       .  S
C1261      C1262   1.410       .  A
C1261      C1266   1.403       .  A
C1262      C1263   1.386       .  A
C1262     Br1278   1.927       .  S
C1263      C1264   1.401       .  A
C1263      H1267   1.081       .  S
C1264      C1265   1.401       .  A
C1264      C1268   1.460       .  S
C1265      C1266   1.400       .  A
C1265     Br1277   1.914       .  S
C1266      H1269   1.082       .  S
C1268      C1270   1.398       .  A
C1268      C1274   1.390       .  A
C1270      C1271   1.397       .  A
C1270      H1275   1.078       .  S
C1271      C1272   1.415       .  A
C1271     Br1279   1.913       .  S
C1272      C1273   1.406       .  A
C1273      C1274   1.402       .  A
C1273      H1276   1.076       .  S
C1274     Br1280   1.907       .  S
C1281      C1282   1.417       .  A
C1281      C1286   1.427       .  A
C1282      C1283   1.389       .  A
C1282     Br1298   1.915       .  S
C1283      C1284   1.407       .  A
C1283      H1287   1.080       .  S
C1284      C1285   1.390       .  A
C1284      C1288   1.480       .  S
C1285      C1286   1.396       .  A
C1285     Br1297   1.914       .  S
C1286      H1289   1.082       .  S
C1288      C1290   1.397   1_455  A
C1288      C1294   1.404   1_455  A
C1290      C1291   1.398       .  A
C1290      H1295   1.081   1_655  S
C1291      C3132   1.410       .  A
C1291     Br1299   1.920       .  S
C1292      C3131   1.410       .  A
C1292      C1293   1.408       .  A
C1293      C3134   1.399       .  A
C1293      H1296   1.078       .  S
C1294      C3133   1.399       .  A
C1294     Br1300   1.918   1_655  S
C1301      C1302   1.397       .  A
C1301      C1306   1.401       .  A
C1302      C3143   1.384       .  A
C1302     Br3158   1.919       .  S
C1303      C3142   1.384       .  A
C1303      C3144   1.413       .  A
C1303      H1307   1.078       .  S
C1304      C3143   1.413       .  A
C1304      C1305   1.414       .  A
C1304      C1308   1.494       .  S
C1305      C1306   1.401       .  A
C1305     Br1317   1.914       .  S
C1306      H1309   1.083       .  S
C1308      C3150   1.417       .  A
C1308      C3154   1.401       .  A
C1310      C3148   1.417       .  A
C1310      C1311   1.406   1_565  A
C1310      H1315   1.079       .  S
C1311      C1312   1.399       .  A
C1312      C1313   1.392   1_545  A
C1313      C1314   1.374       .  A
C1313      H1316   1.071   1_655  S
C1314      C3148   1.401       .  A
C1314     Br3160   1.898       .  S
Br1318     C3142   1.918       .  S
Br1320     C3154   1.898       .  S
C1321      C1322   1.412       .  A
C1321      C1326   1.399       .  A
C1322      C1323   1.398       .  A
C1322     Br1338   1.911       .  S
C1323      C1324   1.398       .  A
C1323      H1327   1.083       .  S
C1324      C1325   1.403       .  A
C1324      C1328   1.469       .  S
C1325      C1326   1.390       .  A
C1325     Br1337   1.896       .  S
C1326      H1329   1.084       .  S
C1328      C3170   1.403       .  A
C1328      C1334   1.396       .  A
C1330      C3168   1.402       .  A
C1330      C1331   1.399       .  A
C1330      H1335   1.081       .  S
C1331      C1332   1.408       .  A
C1331     Br1339   1.908       .  S
C1332      C1333   1.414       .  A
C1333      C3174   1.393       .  A
C1333      H1336   1.083       .  S
C1334      C3173   1.393   1_455  A
C1334     Br1340   1.913       .  S
C1341      C1342   1.407       .  A
C1341      C1346   1.410       .  A
C1342      C1343   1.396       .  A
C1342     Br1358   1.914       .  S
C1343      C1344   1.405       .  A
C1343      H1347   1.084       .  S
C1344      C1345   1.401       .  A
C1344      C1348   1.471       .  S
C1345      C1346   1.398       .  A
C1345     Br1357   1.920       .  S
C1346      H1349   1.083       .  S
C1348      C1350   1.406       .  A
C1348      C1354   1.416       .  A
C1350      C1351   1.403       .  A
C1350      H1355   1.083       .  S
C1351      C1352   1.409       .  A
C1351     Br1359   1.910       .  S
C1352      C1353   1.400       .  A
C1353      C1354   1.392       .  A
C1353      H1356   1.077       .  S
C1354     Br1360   1.924       .  S
C1361      C1362   1.402       .  A
C1361      C1366   1.409       .  A
C1362      C1363   1.401       .  A
C1362     Br1378   1.919       .  S
C1363      C1364   1.405       .  A
C1363      H1367   1.071       .  S
C1364      C1365   1.413       .  A
C1364      C1368   1.523       .  S
C1365      C1366   1.407       .  A
C1365     Br1377   1.914       .  S
C1366      H1369   1.083       .  S
C1368      C1370   1.410       .  A
C1368      C1374   1.403       .  A
C1370      C1371   1.403       .  A
C1370      H1375   1.081       .  S
C1371      C1372   1.416       .  A
C1371     Br1379   1.894       .  S
C1372      C1373   1.410       .  A
C1373      C1374   1.394       .  A
C1373      H1376   1.074       .  S
C1374     Br1380   1.895       .  S
C1381      C1382   1.408       .  A
C1381      C1386   1.464       .  A
C1381      C1538   1.545       .  S
C1382      C1383   1.405       .  A
C1382      H1387   1.082       .  S
C1383      C1384   1.389       .  A
C1383      C1832   1.506       .  S
C1384      C1385   1.393       .  A
C1384      H1388   1.060       .  S
C1385      C1386   1.455       .  A
C1385      C1477   1.563       .  S
C1390      C1391   1.380       .  A
C1390      C1395   1.465       .  A
C1390      C1480   1.520       .  S
C1391      C1392   1.381       .  A
C1391      H1396   1.085       .  S
C1392      C1393   1.395       .  A
C1392      C1801   1.478       .  S
C1393      C3234   1.427       .  A
C1393      H3237   1.082       .  S
C1394      C3233   1.427       .  A
C1394      C3235   1.457       .  A
C1394      C1587   1.567       .  S
C1395      C3234   1.457       .  A
C1395      H2318   1.082       .  S
H1397      C3233   1.082       .  S
H1398      C2315   1.082       .  S
C1399      C1400   1.464       .  A
C1399      C1404   1.405       .  A
C1399      C1590   1.532       .  S
C1400      C1401   1.450       .  A
C1400      H1405   1.082       .  S
C1401      C1402   1.408       .  A
C1401      C1526   1.553       .  S
C1402      C1403   1.391       .  A
C1402      H1406   1.085       .  S
C1403      C1404   1.398       .  A
C1403      C1792   1.486       .  S
C1404      H1407   1.084       .  S
C1408      C1781   1.474       .  S
C1408      N1409   1.360       .  A
C1408      N1413   1.351       .  A
N1409      C1410   1.356       .  A
C1410      C1812   1.496       .  S
C1410      N1411   1.360       .  A
N1411      C1412   1.356       .  A
C1412      C1821   1.452       .  S
C1412      N1413   1.354       .  A
O1414     Cr1432   2.078       .  S
O1414      C1422   1.271       .  A
O1415     Cr1432   1.975       .  S
O1415      C1416   1.247       .  A
C1416      C1449   1.524       .  S
C1416      O1417   1.273       .  A
O1417     Cr1433   2.119       .  S
O1418     Cr1433   1.958       .  S
O1418      C1419   1.255       .  A
C1419      C1504   1.566       .  S
C1419      O1420   1.301       .  A
O1420     Cr1434   2.177       .  S
O1421     Cr1434   1.978       .  S
O1421      C1422   1.263       .  A
C1422      C1559   1.526       .  S
O1423     Cr1432   1.944       .  S
O1423      C1431   1.259       .  A
O1424     Cr1432   2.117       .  S
O1424      C1425   1.302       .  A
C1425      C1564   1.534       .  S
C1425      O1426   1.256       .  A
O1426     Cr1433   1.977       .  S
O1427     Cr1433   2.059       .  S
O1427      C1428   1.289       .  A
C1428      C1454   1.537       .  S
C1428      O1429   1.258       .  A
O1429     Cr1434   2.003       .  S
O1430     Cr1434   2.134       .  S
O1430      C1431   1.307       .  A
C1431      C1509   1.521       .  S
Cr1432     O1435   1.759       .  S
Cr1433     O1435   1.780       .  S
Cr1434     O1435   1.777       .  S
C1436      C1441   1.446       .  A
C1436      C3433   1.527       .  S
C1437      C1438   1.384       .  A
C1437      H1442   1.083       .  S
C1438      C1772   1.478       .  S
C1439      C1440   1.418       .  A
C1439      H1443   1.082       .  S
C1440      C1441   1.449       .  A
C1440      C1474   1.530       .  S
C1441      H1444   1.080       .  S
C1445      C1446   1.408       .  A
C1445      C1450   1.448       .  A
C1445      C1486   1.527       .  S
C1446      C1447   1.407       .  A
C1446      H1451   1.073       .  S
C1447      C1448   1.393       .  A
C1447      C1741   1.502       .  S
C1448      C1449   1.395       .  A
C1448      H1452   1.079       .  S
C1449      C1450   1.426       .  A
C1450      H1453   1.081       .  S
C1454      C1455   1.452       .  A
C1454      C1459   1.393       .  A
C1455      C1456   1.455       .  A
C1455      H1460   1.075       .  S
C1456      C1457   1.404       .  A
C1456      C1581   1.539       .  S
C1457      C1458   1.382       .  A
C1457      H1461   1.058       .  S
C1458      C1459   1.390       .  A
C1458      C1732   1.502       .  S
C1459      H1462   1.074       .  S
C1463      C1761   1.458       .  S
C1463      N1464   1.359       .  A
C1465      C1752   1.472       .  S
C1465      N1466   1.339       .  A
N1466      C1467   1.361       .  A
C1467      C1721   1.450       .  S
C1467      N1468   1.354       .  A
O1469     Cr1487   2.125       .  S
O1470     Cr1487   1.942       .  S
C1471      C1511   1.559       .  S
C1471      O1472   1.298       .  A
O1473      C1474   1.259       .  A
C1474      O1475   1.281       .  A
O1475     Cr1489   2.097       .  S
O1476     Cr1489   1.965       .  S
O1476      C1477   1.267       .  A
O1478     Cr1487   1.995       .  S
O1478      C1486   1.259       .  A
O1479     Cr1487   2.104       .  S
O1479      C1480   1.296       .  A
C1480      O1481   1.256       .  A
O1481     Cr1488   1.961       .  S
O1482      C1483   1.303       .  A
C1483      C1491   1.529   1_455  S
C1483      O1484   1.252       .  A
O1484     Cr1489   1.927       .  S
O1485      C1486   1.283       .  A
Cr1487     O1490   1.780       .  S
Cr1488     O1490   1.798       .  S
C1491      C1492   1.456       .  A
C1492      C1493   1.459       .  A
C1492      H1497   1.082       .  S
C1493      C3334   1.405       .  A
C1493      C3372   1.526       .  S
C1494      C3333   1.405       .  A
C1494      C2875   1.379       .  A
C1494      H1498   1.086       .  S
C1495      C2874   1.383       .  A
C1495      C1496   1.393       .  A
C1495      C3552   1.464       .  S
C1496      H1499   1.081   1_655  S
C1500      C1501   1.385       .  A
C1500      C1505   1.458       .  A
C1500      C1535   1.506       .  S
C1501      C1502   1.381       .  A
C1501      H1506   1.085       .  S
C1502      C1503   1.409       .  A
C1502      C1681   1.502       .  S
C1503      C1504   1.433       .  A
C1503      H1507   1.080       .  S
C1504      C1505   1.449       .  A
C1505      H1508   1.082       .  S
C1509      C1510   1.460       .  A
C1509      C1514   1.389       .  A
C1510      C1511   1.453   1_565  A
C1510      H1515   1.080       .  S
C1511      C1512   1.426       .  A
C1512      C1513   1.402       .  A
C1512      H1516   1.083       .  S
C1513      C1514   1.388   1_545  A
C1513      C1661   1.481       .  S
C1514      H1517   1.085       .  S
C1518      C1701   1.484       .  S
C1518      N1519   1.352       .  A
C1518      N1523   1.350       .  A
N1519      C1520   1.346       .  A
C1520      C1672   1.469       .  S
C1520      N1521   1.361       .  A
N1521      C1522   1.353       .  A
C1522      C1692   1.470       .  S
C1522      N1523   1.361       .  A
O1524     Cr1542   2.105       .  S
O1524      C1532   1.279       .  A
O1525     Cr1542   1.966       .  S
O1525      C1526   1.247       .  A
C1526      O1527   1.285       .  A
O1527     Cr1543   2.158       .  S
O1528     Cr1543   2.023       .  S
C1529      C1568   1.523   1_554  S
O1530     Cr1544   2.046       .  S
O1531     Cr1544   1.952       .  S
O1531      C1532   1.260       .  A
C1532      C3333   1.526       .  S
O1533     Cr1542   2.006       .  S
O1533      C1541   1.267       .  A
O1534     Cr1542   2.127       .  S
O1534      C1535   1.299       .  A
C1535      O1536   1.248       .  A
O1536     Cr1543   1.930       .  S
O1537     Cr1543   2.124       .  S
O1537      C1538   1.300       .  A
C1538      O1539   1.265       .  A
O1539     Cr1544   1.985       .  S
O1540     Cr1544   2.047       .  S
O1540      C1541   1.282       .  A
C1541      C1546   1.520       .  S
Cr1542     O1545   1.781       .  S
Cr1543     O1545   1.814       .  S
Cr1544     O1545   1.764       .  S
C1546      C1547   1.438       .  A
C1546      C1551   1.396       .  A
C1547      C1548   1.440       .  A
C1547      H1552   1.082       .  S
C1548      C1549   1.422       .  A
C1548      C1584   1.531       .  S
C1549      C1550   1.402       .  A
C1549      H1553   1.079       .  S
C1550      C1551   1.401       .  A
C1550      C1652   1.520       .  S
C1551      H1554   1.077       .  S
C1555      C1556   1.388       .  A
C1555      C1560   1.455       .  A
C1555      C3436   1.523       .  S
C1556      C1557   1.390       .  A
C1556      H1561   1.084       .  S
C1557      C1558   1.380       .  A
C1557      C1632   1.459       .  S
C1558      C1559   1.403       .  A
C1558      H1562   1.083       .  S
C1559      C1560   1.457       .  A
C1560      H1563   1.082       .  S
C1564      C1565   1.393       .  A
C1564      C1569   1.459       .  A
C1565      C1566   1.396   1_556  A
C1565      H1570   1.082       .  S
C1566      C1567   1.357       .  A
C1566      C1612   1.458       .  S
C1567      C1568   1.378   1_554  A
C1567      H1571   1.064       .  S
C1568      C1569   1.450       .  A
C1569      H1572   1.067       .  S
C1573      C1621   1.486       .  S
C1573      N1578   1.358       .  A
N1574      C1575   1.352       .  A
C1575      C1641   1.477       .  S
N1576      C1577   1.349       .  A
C1577      C1601   1.472       .  S
C1577      N1578   1.348       .  A
O1579     Cr1597   2.165       .  S
O1580     Cr1597   2.043       .  S
O1580      C1581   1.279       .  A
C1581      O1582   1.269       .  A
O1582     Cr1598   2.041       .  S
O1583      C1584   1.249       .  A
C1584      O1585   1.280       .  A
O1585     Cr1599   2.127       .  S
O1586     Cr1599   1.934       .  S
O1586      C1587   1.249       .  A
O1588     Cr1597   1.947       .  S
O1588      C1596   1.257       .  A
O1589     Cr1597   2.087       .  S
O1589      C1590   1.296       .  A
C1590      O1591   1.264       .  A
O1591     Cr1598   1.969       .  S
O1592      C1593   1.292       .  A
C1593      C3276   1.527       .  S
C1593      O1594   1.260       .  A
O1594     Cr1599   1.977       .  S
O1595     Cr2519   2.131   1_565  S
O1595      C3436   1.295       .  A
C1596      C3395   1.523       .  S
C1596      O3435   1.295       .  A
Cr1597     O1600   1.797       .  S
Cr1598     O1600   1.783       .  S
Cr1599     O2515   2.134       .  S
C1601      C1602   1.397       .  A
C1602      C1603   1.375       .  A
C1602     Br1618   1.908       .  S
C1603      H1607   1.075       .  S
C1604      C1605   1.401       .  A
C1604      C1608   1.484       .  S
C1605      C1606   1.403       .  A
C1605     Br1617   1.907       .  S
C1606      H1609   1.077       .  S
C1608      C1610   1.409       .  A
C1608      C1614   1.415       .  A
C1610      C1611   1.403       .  A
C1610      H1615   1.069       .  S
C1611      C1612   1.375       .  A
C1611     Br1619   1.911   1_554  S
C1612      C1613   1.399       .  A
C1613      C1614   1.398       .  A
C1613      H1616   1.083       .  S
C1614     Br1620   1.914       .  S
C1621      C1622   1.413       .  A
C1621      C1626   1.400       .  A
C1622      C1623   1.394       .  A
C1622     Br1638   1.877       .  S
C1623      C1624   1.393       .  A
C1623      H1627   1.080       .  S
C1624      C1625   1.415       .  A
C1624      C1628   1.469       .  S
C1625      C1626   1.393       .  A
C1625     Br1637   1.899       .  S
C1628      C1630   1.404       .  A
C1628      C1634   1.403       .  A
C1630      C1631   1.391       .  A
C1630      H1635   1.085       .  S
C1631      C1632   1.405       .  A
C1631     Br1639   1.920       .  S
C1632      C1633   1.401       .  A
C1633      C1634   1.392       .  A
C1633      H1636   1.084       .  S
C1634     Br1640   1.908       .  S
C1641      C1642   1.393       .  A
C1641      C1646   1.405       .  A
C1642      C1643   1.398       .  A
C1642     Br1658   1.898       .  S
C1643      C1644   1.409       .  A
C1643      H1647   1.077       .  S
C1644      C1645   1.414       .  A
C1644      C1648   1.495       .  S
C1645      C1646   1.398       .  A
C1645     Br1657   1.920       .  S
C1648      C1650   1.403       .  A
C1648      C1654   1.410       .  A
C1650      C1651   1.406       .  A
C1650      H1655   1.083       .  S
C1651      C1652   1.424       .  A
C1651     Br1659   1.914       .  S
C1652      C1653   1.413       .  A
C1653      C1654   1.393       .  A
C1653      H1656   1.077       .  S
C1654     Br1660   1.919       .  S
C1661      C1662   1.408   1_545  A
C1661      C1666   1.401       .  A
C1662      C1663   1.392       .  A
C1662     Br1678   1.892       .  S
C1663      C1664   1.399   1_565  A
C1663      H1667   1.085       .  S
C1664      C1665   1.421       .  A
C1664      C1668   1.484   1_545  S
C1665      C1666   1.404       .  A
C1666      H1669   1.084       .  S
C1668      C1670   1.416       .  A
C1670      C1671   1.397       .  A
C1670      H1675   1.081       .  S
C1671     Br1679   1.910       .  S
C1672      C1673   1.407       .  A
C1673      C1674   1.395       .  A
C1673      H1676   1.083       .  S
C1674     Br1680   1.914       .  S
C1681      C1682   1.425       .  A
C1681      C1686   1.410       .  A
C1682      C1683   1.384       .  A
C1682     Br1698   1.926       .  S
C1683      C1684   1.390       .  A
C1683      H1687   1.076       .  S
C1684      C1685   1.407       .  A
C1684      C1688   1.484       .  S
C1685      C1686   1.408       .  A
C1685     Br1697   1.917       .  S
C1686      H1689   1.070       .  S
C1688      C1690   1.404       .  A
C1688      C1694   1.425       .  A
C1690      C1691   1.403       .  A
C1690      H1695   1.081       .  S
C1691      C1692   1.406       .  A
C1691     Br1699   1.911       .  S
C1692      C1693   1.389       .  A
C1693      C1694   1.386       .  A
C1693      H1696   1.082       .  S
C1694     Br1700   1.920       .  S
C1701      C1702   1.414       .  A
C1701      C1706   1.402       .  A
C1702      C1703   1.398       .  A
C1702     Br1718   1.892       .  S
C1703      C1704   1.394       .  A
C1703      H1707   1.083       .  S
C1704      C1705   1.403       .  A
C1704      C1708   1.457       .  S
C1705      C1706   1.375       .  A
C1705     Br1717   1.912       .  S
C1706      H1709   1.081       .  S
C1708      C1710   1.396       .  A
C1708      C1714   1.397       .  A
C1710      C1711   1.378       .  A
C1710      H1715   1.085       .  S
C1711      C1712   1.408       .  A
C1712      C1713   1.408       .  A
C1712      C3335   1.464       .  S
C1713      C1714   1.400       .  A
C1713      H3556   1.080       .  S
C1714     Br1720   1.907       .  S
H1716      C3553   1.080       .  S
C1721      C1722   1.405       .  A
C1721      C1726   1.403       .  A
C1722      C1723   1.383       .  A
C1722     Br1738   1.925       .  S
C1723      C1724   1.403       .  A
C1723      H1727   1.079       .  S
C1724      C1725   1.402       .  A
C1724      C1728   1.456       .  S
C1725      C1726   1.399       .  A
C1725     Br1737   1.913       .  S
C1726      H1729   1.082       .  S
C1728      C1730   1.398       .  A
C1728      C1734   1.391       .  A
C1730      C1731   1.398       .  A
C1730      H1735   1.081       .  S
C1731      C1732   1.415       .  A
C1731     Br1739   1.910       .  S
C1732      C1733   1.406       .  A
C1733      C1734   1.402       .  A
C1733      H1736   1.075       .  S
C1734     Br1740   1.912       .  S
C1741      C1742   1.414       .  A
C1741      C1746   1.425       .  A
C1742      C1743   1.388       .  A
C1742     Br1758   1.914       .  S
C1743      C1744   1.408       .  A
C1743      H1747   1.080       .  S
C1744      C1745   1.391       .  A
C1744      C1748   1.479       .  S
C1745      C1746   1.395       .  A
C1745     Br1757   1.913       .  S
C1746      H1749   1.083       .  S
C1748      C1750   1.395   1_455  A
C1748      C1754   1.406   1_455  A
C1750      C1751   1.397       .  A
C1750      H1755   1.081   1_655  S
C1751      C3592   1.412       .  A
C1751     Br1759   1.916       .  S
C1752      C3591   1.412       .  A
C1752      C1753   1.410       .  A
C1753      C3594   1.402       .  A
C1753      H1756   1.081       .  S
C1754      C3593   1.402       .  A
C1754     Br1760   1.920   1_655  S
C1761      C1762   1.400       .  A
C1761      C1766   1.402       .  A
C1762      C3603   1.384       .  A
C1762     Br3618   1.916       .  S
C1763      C3602   1.383       .  A
C1763      C3604   1.409       .  A
C1763      H1767   1.077       .  S
C1764      C3603   1.409       .  A
C1764      C1765   1.414       .  A
C1764      C1768   1.495       .  S
C1765      C1766   1.402       .  A
C1765     Br1777   1.914       .  S
C1766      H1769   1.083       .  S
C1768      C3610   1.416       .  A
C1768      C3614   1.405       .  A
C1770      C3608   1.416       .  A
C1770      C1771   1.405   1_565  A
C1770      H1775   1.080       .  S
C1771      C1772   1.400       .  A
C1772      C1773   1.394   1_545  A
C1773      C1774   1.377       .  A
C1773      H1776   1.070   1_655  S
C1774      C3608   1.405       .  A
C1774     Br3620   1.903       .  S
Br1778     C3602   1.917       .  S
Br1780     C3614   1.903       .  S
C1781      C1782   1.412       .  A
C1781      C1786   1.399       .  A
C1782      C1783   1.393       .  A
C1782     Br1798   1.901       .  S
C1783      C1784   1.393       .  A
C1783      H1787   1.084       .  S
C1784      C1785   1.402       .  A
C1784      C1788   1.464       .  S
C1785      C1786   1.391       .  A
C1785     Br1797   1.890       .  S
C1786      H1789   1.084       .  S
C1788      C3630   1.402       .  A
C1788      C1794   1.394       .  A
C1790      C3628   1.402       .  A
C1790      C1791   1.398       .  A
C1790      H1795   1.083       .  S
C1791      C1792   1.409       .  A
C1791     Br1799   1.908       .  S
C1792      C1793   1.413       .  A
C1793      C3634   1.392       .  A
C1793      H1796   1.083       .  S
C1794      C3633   1.392   1_455  A
C1794     Br1800   1.912       .  S
C1801      C1802   1.401       .  A
C1801      C1806   1.408       .  A
C1802      C1803   1.396       .  A
C1802     Br1818   1.908       .  S
C1803      C1804   1.406       .  A
C1803      H1807   1.084       .  S
C1804      C1805   1.399       .  A
C1804      C1808   1.468       .  S
C1805      C1806   1.394       .  A
C1805     Br1817   1.914       .  S
C1806      H1809   1.081       .  S
C1808      C1810   1.405       .  A
C1808      C1814   1.416       .  A
C1810      C1811   1.403       .  A
C1810      H1815   1.083       .  S
C1811      C1812   1.409       .  A
C1811     Br1819   1.909       .  S
C1812      C1813   1.401       .  A
C1813      C1814   1.393       .  A
C1813      H1816   1.075       .  S
C1814     Br1820   1.924       .  S
C1821      C1822   1.404       .  A
C1821      C1826   1.409       .  A
C1822      C1823   1.401       .  A
C1822     Br1838   1.920       .  S
C1823      C1824   1.405       .  A
C1823      H1827   1.074       .  S
C1824      C1825   1.414       .  A
C1824      C1828   1.525       .  S
C1825      C1826   1.409       .  A
C1825     Br1837   1.915       .  S
C1826      H1829   1.083       .  S
C1828      C1830   1.412       .  A
C1828      C1834   1.406       .  A
C1830      C1831   1.403       .  A
C1830      H1835   1.082       .  S
C1831      C1832   1.411       .  A
C1831     Br1839   1.892       .  S
C1832      C1833   1.408       .  A
C1833      C1834   1.393       .  A
C1833      H1836   1.071       .  S
C1834     Br1840   1.899       .  S
C1841      C1842   1.409       .  A
C1841      C1846   1.462       .  A
C1841      C1998   1.548       .  S
C1842      C1843   1.407       .  A
C1842      H1847   1.082       .  S
C1843      C1844   1.390       .  A
C1843      C2292   1.510       .  S
C1844      C1845   1.396       .  A
C1844      H1848   1.066       .  S
C1845      C1846   1.453       .  A
C1845      C1937   1.558       .  S
C1846      H2309   1.072       .  S
H1849      C2306   1.071       .  S
C1850      C1851   1.383       .  A
C1850      C1855   1.468       .  A
C1850      C1940   1.526       .  S
C1851      C1852   1.384       .  A
C1851      H1856   1.085       .  S
C1852      C1853   1.396       .  A
C1852      C2261   1.482       .  S
C1854      C2047   1.571       .  S
C1859      C1860   1.467       .  A
C1859      C1864   1.408       .  A
C1859      C2050   1.544       .  S
C1860      C1861   1.455       .  A
C1860      H1865   1.080       .  S
C1861      C1862   1.404       .  A
C1861      C1986   1.556       .  S
C1862      C1863   1.389       .  A
C1862      H1866   1.085       .  S
C1863      C1864   1.402       .  A
C1863      C2252   1.488       .  S
C1864      H1867   1.084       .  S
C1868      C2241   1.474       .  S
C1868      N1869   1.358       .  A
C1868      N1873   1.352       .  A
N1869      C1870   1.355       .  A
C1870      C2272   1.493       .  S
C1870      N1871   1.358       .  A
N1871      C1872   1.356       .  A
C1872      C2281   1.451       .  S
C1872      N1873   1.355       .  A
O1874     Cr1892   2.086       .  S
O1874      C1882   1.273       .  A
O1875     Cr1892   1.980       .  S
O1875      C1876   1.248       .  A
C1876      C1909   1.530       .  S
C1876      O1877   1.275       .  A
O1877     Cr1893   2.127       .  S
O1878     Cr1893   1.959       .  S
O1878      C1879   1.257       .  A
C1879      C1964   1.569       .  S
C1879      O1880   1.301       .  A
O1880     Cr1894   2.177       .  S
O1881     Cr1894   1.987       .  S
O1881      C1882   1.265       .  A
C1882      C2019   1.534       .  S
O1883     Cr1892   1.941       .  S
O1883      C1891   1.259       .  A
O1884     Cr1892   2.127       .  S
O1884      C1885   1.304       .  A
C1885      C2024   1.545       .  S
C1885      O1886   1.258       .  A
O1886     Cr1893   1.987       .  S
O1887     Cr1893   2.067       .  S
O1887      C1888   1.291       .  A
C1888      C1914   1.541       .  S
C1888      O1889   1.258       .  A
O1889     Cr1894   2.007       .  S
O1890     Cr1894   2.129       .  S
O1890      C1891   1.305       .  A
C1891      C1969   1.516       .  S
Cr1892     O1895   1.760       .  S
Cr1893     O1895   1.784       .  S
Cr1894     O1895   1.782       .  S
C1896      C2817   1.399       .  A
C1896      C1901   1.446       .  A
C1897      C2816   1.400       .  A
C1897      C1898   1.386       .  A
C1897      H1902   1.082       .  S
C1898      C2819   1.401       .  A
C1898      C2232   1.474       .  S
C1899      C2818   1.401       .  A
C1899      C1900   1.414       .  A
C1899      H1903   1.081       .  S
C1900      C1901   1.449       .  A
C1900      C1934   1.526       .  S
C1901      H1904   1.080       .  S
C1905      C1906   1.407       .  A
C1905      C1910   1.451       .  A
C1905      C1946   1.529       .  S
C1906      C1907   1.406       .  A
C1906      H1911   1.073       .  S
C1907      C1908   1.395       .  A
C1907      C2201   1.506       .  S
C1908      C1909   1.396       .  A
C1908      H1912   1.077       .  S
C1909      C1910   1.430       .  A
C1910      H1913   1.082       .  S
C1914      C1915   1.456       .  A
C1914      C1919   1.393       .  A
C1915      C1916   1.459       .  A
C1915      H1920   1.074       .  S
C1916      C1917   1.400       .  A
C1916      C2041   1.543       .  S
C1917      C1918   1.377       .  A
C1917      H1921   1.066       .  S
C1918      C1919   1.390       .  A
C1918      C2192   1.500       .  S
C1919      H1922   1.074       .  S
C1923      C2221   1.452       .  S
C1923      N1924   1.365   1_554  A
C1923      N2388   1.354   1_554  A
N1924      C2385   1.349       .  A
C1925      C2212   1.470       .  S
C1925      N2384   1.346       .  A
C1925      N1926   1.337       .  A
N1926      C1927   1.356       .  A
C1927      C2181   1.451       .  S
C1927      N1928   1.357       .  A
N1928      C2383   1.357       .  A
O1929     Cr1947   2.135       .  S
O1929      C2397   1.293       .  A
O1930     Cr1947   1.942       .  S
O1930      C2851   1.253       .  A
C1931      C1971   1.555       .  S
C1931      O2850   1.253       .  A
C1931      O1932   1.298       .  A
O1932     Cr2868   2.160       .  S
O1933     Cr2408   1.989   1_554  S
O1933      C1934   1.260       .  A
C1934      O1935   1.280       .  A
O1935     Cr1949   2.091       .  S
O1936     Cr1949   1.962       .  S
O1936      C1937   1.265       .  A
C1937      O2389   1.291   1_554  A
O1938     Cr1947   1.992       .  S
O1938      C1946   1.258       .  A
O1939     Cr1947   2.109       .  S
O1939      C1940   1.296       .  A
C1940      O1941   1.256       .  A
O1941     Cr1948   1.966       .  S
O1942     Cr2408   2.169       .  S
O1942      C1943   1.304       .  A
C1943      C1951   1.535   1_556  S
C1943      O1944   1.252       .  A
O1944     Cr1949   1.928   1_556  S
O1945     Cr2409   2.069       .  S
O1945      C1946   1.285       .  A
Cr1947     O1950   1.785       .  S
Cr1948     O2852   2.160       .  S
Cr1948     O2393   1.984       .  S
Cr1948     O2402   2.161       .  S
Cr1948     O1950   1.801       .  S
Cr1949     O2405   2.064   1_554  S
Cr1949     O2410   1.788   1_554  S
O1950     Cr2409   1.790       .  S
C1951      C1952   1.459       .  A
C1951      C2416   1.396   1_554  A
C1952      C1953   1.463       .  A
C1952      H1957   1.082       .  S
C1954      H1958   1.086   1_554  S
C1955      C1956   1.391       .  A
C1956      C2411   1.398       .  A
C1956      H1959   1.081       .  S
C1960      C1961   1.384       .  A
C1960      C1965   1.460       .  A
C1960      C1995   1.509       .  S
C1961      C1962   1.382       .  A
C1961      H1966   1.086       .  S
C1962      C1963   1.408       .  A
C1962      C2141   1.500       .  S
C1963      C1964   1.433       .  A
C1963      H1967   1.081       .  S
C1964      C1965   1.451       .  A
C1965      H1968   1.082       .  S
C1969      C1970   1.458       .  A
C1969      C1974   1.390       .  A
C1970      C1971   1.451       .  A
C1970      H1975   1.080       .  S
C1971      C1972   1.425       .  A
C1972      C1973   1.402       .  A
C1972      H1976   1.083       .  S
C1973      C1974   1.388       .  A
C1973      C2121   1.480       .  S
C1974      H1977   1.086       .  S
C1978      C2161   1.483       .  S
C1978      N1979   1.353       .  A
C1978      N1983   1.349       .  A
N1979      C1980   1.349   1_545  A
C1980      C2132   1.470       .  S
C1980      N1981   1.362       .  A
N1981      C1982   1.352   1_565  A
C1982      C2152   1.470       .  S
C1982      N1983   1.360       .  A
O1984     Cr2002   2.112       .  S
O1984      C1992   1.282       .  A
O1985     Cr2002   1.971       .  S
O1985      C1986   1.249       .  A
C1986      O1987   1.285       .  A
O1987     Cr2003   2.156       .  S
O1988     Cr2003   2.021       .  S
O1988      C2449   1.266       .  A
C1989      C2028   1.530       .  S
C1989      O2448   1.267       .  A
C1989      O2450   1.280       .  A
O1990     Cr2004   2.046       .  S
O1990      C2449   1.282       .  A
O1991     Cr2004   1.957       .  S
O1991      C1992   1.262       .  A
O1993     Cr2002   2.007       .  S
O1993      C2001   1.266       .  A
O1994     Cr2002   2.131       .  S
O1994      C1995   1.300       .  A
C1995      O1996   1.249       .  A
O1996     Cr2003   1.931       .  S
O1997     Cr2003   2.125       .  S
O1997      C1998   1.299       .  A
C1998      O1999   1.266       .  A
O1999     Cr2004   1.991       .  S
O2000     Cr2004   2.046       .  S
O2000      C2001   1.282       .  A
C2001      C2006   1.523       .  S
Cr2002     O2005   1.781       .  S
Cr2003     O2005   1.817       .  S
Cr2004     O2005   1.767       .  S
C2006      C2007   1.441       .  A
C2006      C2011   1.395       .  A
C2007      C2008   1.442       .  A
C2007      H2012   1.082       .  S
C2008      C2009   1.421       .  A
C2008      C2044   1.531       .  S
C2009      C2010   1.400       .  A
C2009      H2013   1.080       .  S
C2010      C2011   1.399       .  A
C2010      C2112   1.517       .  S
C2011      H2014   1.076       .  S
C2015      C2016   1.389       .  A
C2015      C2020   1.462       .  A
C2016      C2017   1.391       .  A
C2016      H2021   1.084       .  S
C2017      C2018   1.382       .  A
C2017      C2092   1.461       .  S
C2018      C2019   1.402       .  A
C2018      H2022   1.083       .  S
C2019      C2020   1.465       .  A
C2020      H2023   1.082       .  S
C2024      C2025   1.394       .  A
C2024      C2029   1.466       .  A
C2025      C2026   1.396       .  A
C2025      H2030   1.082       .  S
C2026      C2027   1.355       .  A
C2026      C2072   1.455       .  S
C2027      C2028   1.377       .  A
C2027      H2031   1.066       .  S
C2028      C2029   1.457       .  A
C2029      H2032   1.068       .  S
C2033      C2081   1.483       .  S
C2033      N2954   1.365       .  A
C2033      N2038   1.357   1_554  A
N2034      C2953   1.364       .  A
N2034      C2035   1.353       .  A
C2035      C2101   1.475       .  S
C2035      N2956   1.342       .  A
N2036      C2955   1.340       .  A
N2036      C2037   1.350   1_554  A
C2037      C2061   1.476       .  S
C2037      N2038   1.347       .  A
O2039     Cr2057   2.170       .  S
O2039      C2967   1.292   1_655  A
O2040     Cr2057   2.045       .  S
O2040      C2041   1.278       .  A
C2041      O2042   1.270       .  A
O2042     Cr2058   2.043       .  S
O2043     Cr2978   1.957   1_545  S
O2043      C2044   1.250       .  A
C2044      O2045   1.279       .  A
O2045     Cr2059   2.127   1_655  S
O2046     Cr2059   1.941   1_655  S
O2046      C2047   1.250   1_655  A
C2047      O2959   1.292   1_445  A
O2048     Cr2057   1.947   1_455  S
O2048      C2056   1.257       .  A
O2049     Cr2057   2.100       .  S
O2049      C2050   1.299       .  A
C2050      O2051   1.265       .  A
O2051     Cr2058   1.979       .  S
O2052     Cr2978   2.079   1_545  S
O2052      C2053   1.292       .  A
C2053      O2054   1.262   1_655  A
O2054     Cr2059   1.982       .  S
Cr2057     O2060   1.795       .  S
Cr2058     O2963   1.957       .  S
Cr2058     O2972   2.080       .  S
Cr2058     O2060   1.785       .  S
Cr2059     O2980   1.807   1_445  S
O2060     Cr2979   1.808   1_655  S
C2061      C2062   1.398       .  A
C2061      C2526   1.415   1_556  A
C2062      C2063   1.375   1_556  A
C2062     Br2078   1.910       .  S
C2063      C2524   1.403       .  A
C2063      H2067   1.074       .  S
C2064      C2523   1.404       .  A
C2064      C2065   1.402       .  A
C2064      C2068   1.482       .  S
C2065      C2066   1.400       .  A
C2065     Br2077   1.903       .  S
C2066      C2521   1.412       .  A
C2066      H2069   1.079       .  S
C2068      C2070   1.410       .  A
C2068      C2074   1.417       .  A
C2070      C2071   1.401       .  A
C2070      H2075   1.074       .  S
C2071      C2072   1.375       .  A
C2071     Br2079   1.906       .  S
C2072      C2073   1.399       .  A
C2073      C2074   1.397       .  A
C2073      H2076   1.083       .  S
C2074     Br2080   1.919       .  S
C2081      C2082   1.413       .  A
C2081      C2086   1.401       .  A
C2082      C2083   1.392       .  A
C2082     Br2098   1.882       .  S
C2083      C2084   1.393       .  A
C2083      H2087   1.080       .  S
C2084      C2085   1.415       .  A
C2084      C2088   1.469       .  S
C2085      C2086   1.394       .  A
C2085     Br2097   1.902       .  S
C2086      H3009   1.081       .  S
C2088      C2090   1.402       .  A
C2088      C2094   1.406       .  A
H2089      C3006   1.081   1_545  S
C2090      C2091   1.390       .  A
C2090      H2095   1.084       .  S
C2091      C2092   1.404       .  A
C2091     Br2099   1.918       .  S
C2092      C2093   1.403       .  A
C2093      C2094   1.395       .  A
C2093      H2096   1.084       .  S
C2094     Br2100   1.910       .  S
C2101      C2102   1.394   1_565  A
C2101      C2106   1.406       .  A
C2102      C2103   1.395       .  A
C2102     Br2118   1.899       .  S
C2103      C2104   1.408   1_545  A
C2103      H2107   1.078       .  S
C2104      C2105   1.413       .  A
C2104      C2108   1.491   1_565  S
C2105      C2106   1.398       .  A
C2105     Br2117   1.920       .  S
C2106      H3029   1.084       .  S
C2108      C2110   1.403   1_545  A
C2108      C2114   1.409       .  A
H2109      C3026   1.084       .  S
C2110      C2111   1.405   1_565  A
C2110      H2115   1.083       .  S
C2111      C2112   1.423       .  A
C2111     Br2119   1.912   1_545  S
C2112      C2113   1.411       .  A
C2113      C2114   1.390       .  A
C2113      H2116   1.076       .  S
C2114     Br2120   1.920       .  S
C2121      C2122   1.408       .  A
C2121      C2126   1.401       .  A
C2122      C2123   1.392       .  A
C2122     Br2138   1.893       .  S
C2123      C2124   1.398       .  A
C2123      H2127   1.085       .  S
C2124      C2125   1.419       .  A
C2124      C2128   1.482       .  S
C2125      C2126   1.402       .  A
C2125     Br3057   1.923       .  S
C2126      H2129   1.084       .  S
C2128      C2130   1.415       .  A
C2128      C3054   1.411       .  A
C2130      C2131   1.396       .  A
C2130      H2135   1.081       .  S
C2131      C3052   1.394       .  A
C2131     Br2139   1.912       .  S
C2132      C3051   1.393       .  A
C2132      C2133   1.405   1_565  A
C2133      C2134   1.395       .  A
C2133      H2136   1.083       .  S
C2134      C3048   1.411       .  A
C2134     Br2140   1.914       .  S
Br2137     C3045   1.922       .  S
C2141      C2142   1.424       .  A
C2141      C2146   1.410       .  A
C2142      C2143   1.384       .  A
C2142     Br2158   1.927       .  S
C2143      C2144   1.391       .  A
C2143      H2147   1.076       .  S
C2144      C2145   1.408       .  A
C2144      C2148   1.485       .  S
C2145      C2146   1.408       .  A
C2145     Br2157   1.917       .  S
C2146      H2149   1.073       .  S
C2148      C2150   1.405       .  A
C2148      C2154   1.425       .  A
C2150      C2151   1.403       .  A
C2150      H2155   1.081       .  S
C2151      C2152   1.406       .  A
C2151     Br2159   1.912   1_545  S
C2152      C2153   1.389       .  A
C2153      C2154   1.386       .  A
C2153      H2156   1.082       .  S
C2154     Br2160   1.924       .  S
C2161      C2162   1.415       .  A
C2161      C2166   1.400       .  A
C2162      C2163   1.399       .  A
C2162     Br2178   1.895       .  S
C2163      C2164   1.395       .  A
C2163      H2167   1.083       .  S
C2164      C2165   1.404       .  A
C2164      C2168   1.459       .  S
C2165      C2166   1.376       .  A
C2165     Br2177   1.909       .  S
C2166      H2169   1.081       .  S
C2168      C2170   1.396       .  A
C2168      C2174   1.398       .  A
C2170      C2171   1.378       .  A
C2170      H2175   1.085       .  S
C2171      C2172   1.410       .  A
C2171     Br2639   1.921       .  S
C2172      C2173   1.408       .  A
C2173      C2174   1.400       .  A
C2174     Br2180   1.907       .  S
Br2179     C2631   1.922       .  S
C2181      C2182   1.409       .  A
C2181      C2186   1.403       .  A
C2182      C2183   1.386       .  A
C2182     Br2198   1.928       .  S
C2183      C2184   1.401       .  A
C2183      H2187   1.081       .  S
C2184      C2185   1.401       .  A
C2184      C2188   1.459       .  S
C2185      C2186   1.400       .  A
C2185     Br2197   1.913       .  S
C2186      H2189   1.082       .  S
C2188      C2190   1.397       .  A
C2188      C2194   1.391       .  A
C2190      C2191   1.397       .  A
C2190      H2195   1.080       .  S
C2191      C2192   1.416       .  A
C2191     Br2199   1.912       .  S
C2192      C2193   1.405       .  A
C2193      C2194   1.402       .  A
C2193      H2196   1.076       .  S
C2194     Br2200   1.908       .  S
C2201      C2202   1.416       .  A
C2201      C2206   1.425       .  A
C2202      C2203   1.389       .  A
C2202     Br2218   1.914       .  S
C2203      C2204   1.407       .  A
C2203      H2207   1.081       .  S
C2204      C2205   1.391       .  A
C2204      C2208   1.479       .  S
C2205      C2206   1.396       .  A
C2205     Br2217   1.914       .  S
C2206      H2209   1.082       .  S
C2208      C2210   1.397       .  A
C2208      C2214   1.404       .  A
C2210      C2211   1.399       .  A
C2210      H2215   1.081       .  S
C2211     Br2219   1.919       .  S
C2212      C2213   1.409       .  A
C2213      H2216   1.079       .  S
C2214     Br2220   1.918       .  S
C2221      C2222   1.397       .  A
C2221      C2226   1.400       .  A
C2223      H2227   1.079       .  S
C2224      C2225   1.411       .  A
C2224      C2228   1.488       .  S
C2225      C2226   1.397       .  A
C2225     Br2237   1.912       .  S
C2226      H2229   1.083       .  S
C2230      C2231   1.403       .  A
C2230      H2235   1.080       .  S
C2231      C2232   1.398       .  A
C2231     Br3159   1.889       .  S
C2232      C2233   1.394       .  A
C2233      C2234   1.375       .  A
C2233      H2236   1.069       .  S
Br2239     C3151   1.895       .  S
C2241      C2242   1.412       .  A
C2241      C2246   1.400       .  A
C2242      C2243   1.398       .  A
C2242     Br2258   1.908       .  S
C2243      C2244   1.397       .  A
C2243      H2247   1.083       .  S
C2244      C2245   1.403       .  A
C2244      C2248   1.467       .  S
C2245      C2246   1.390       .  A
C2245     Br2257   1.896       .  S
C2246      H2249   1.084       .  S
C2248      C2254   1.395       .  A
C2250      C2251   1.399       .  A
C2250      H2255   1.082       .  S
C2251      C2252   1.408   1_455  A
C2251     Br2259   1.908       .  S
C2252      C2253   1.414       .  A
C2253      H2256   1.083       .  S
C2254     Br2260   1.912       .  S
C2261      C2262   1.405       .  A
C2261      C2266   1.410       .  A
C2262      C2263   1.396       .  A
C2262     Br2278   1.914       .  S
C2263      C2264   1.406       .  A
C2263      H2267   1.085       .  S
C2264      C2265   1.401       .  A
C2264      C2268   1.470       .  S
C2265      C2266   1.397       .  A
C2265     Br2277   1.921       .  S
C2266      H2269   1.083       .  S
C2268      C2270   1.406       .  A
C2268      C2274   1.417       .  A
C2270      C2271   1.403       .  A
C2270      H2275   1.083       .  S
C2271      C2272   1.409       .  A
C2271     Br2279   1.911       .  S
C2272      C2273   1.400       .  A
C2273      C2274   1.392       .  A
C2273      H2276   1.077       .  S
C2274     Br2280   1.924       .  S
C2281      C2282   1.404       .  A
C2281      C2286   1.409       .  A
C2282      C2283   1.401       .  A
C2282     Br2298   1.920       .  S
C2283      C2284   1.405       .  A
C2283      H2287   1.071       .  S
C2284      C2285   1.413       .  A
C2284      C2288   1.525       .  S
C2285      C2286   1.408       .  A
C2285     Br2297   1.914       .  S
C2286      H2289   1.083       .  S
C2288      C2290   1.410       .  A
C2288      C2294   1.404       .  A
C2290      C2291   1.403       .  A
C2290      H2295   1.082       .  S
C2291      C2292   1.415       .  A
C2291     Br2299   1.894       .  S
C2292      C2293   1.411       .  A
C2293      C2294   1.394       .  A
C2293      H2296   1.072       .  S
C2294     Br2300   1.897       .  S
C2301      C2302   1.408       .  A
C2301      C2306   1.463       .  A
C2301      C2458   1.545       .  S
C2302      C2303   1.405       .  A
C2302      H2307   1.082       .  S
C2303      C2304   1.389       .  A
C2303      C2752   1.507       .  S
C2304      C2305   1.394       .  A
C2304      H2308   1.061       .  S
C2305      C2306   1.455       .  A
C2305      C2397   1.563       .  S
C2310      C2311   1.382       .  A
C2310      C2315   1.465       .  A
C2310      C2400   1.522       .  S
C2311      C2312   1.383       .  A
C2311      H2316   1.085       .  S
C2312      C2313   1.395       .  A
C2312      C2721   1.480       .  S
C2314      C2507   1.567       .  S
C2319      C2320   1.464       .  A
C2319      C2324   1.407       .  A
C2319      C2510   1.534       .  S
C2320      C2321   1.451       .  A
C2320      H2325   1.082       .  S
C2321      C2322   1.407       .  A
C2321      C2446   1.552       .  S
C2322      C2323   1.389       .  A
C2322      H2326   1.085       .  S
C2323      C2324   1.400       .  A
C2323      C2712   1.486       .  S
C2324      H2327   1.084       .  S
C2328      C2701   1.475       .  S
C2328      N2329   1.359       .  A
C2328      N2333   1.351       .  A
N2329      C2330   1.355       .  A
C2330      C2732   1.495       .  S
C2330      N2331   1.359       .  A
N2331      C2332   1.356       .  A
C2332      C2741   1.452       .  S
C2332      N2333   1.355       .  A
O2334     Cr2352   2.078       .  S
O2334      C2342   1.271       .  A
O2335     Cr2352   1.974       .  S
O2335      C2336   1.248       .  A
C2336      C2369   1.526       .  S
C2336      O2337   1.274       .  A
O2337     Cr2353   2.121       .  S
O2338     Cr2353   1.960       .  S
O2338      C2339   1.255       .  A
C2339      C2424   1.569       .  S
C2339      O2340   1.301       .  A
O2340     Cr2354   2.181       .  S
O2341     Cr2354   1.978       .  S
O2341      C2342   1.264       .  A
C2342      C2479   1.526       .  S
O2343     Cr2352   1.946       .  S
O2343      C2351   1.260       .  A
O2344     Cr2352   2.116       .  S
O2344      C2345   1.301       .  A
C2345      C2484   1.536       .  S
C2345      O2346   1.256       .  A
O2346     Cr2353   1.979       .  S
O2347     Cr2353   2.065       .  S
O2347      C2348   1.291       .  A
C2348      C2374   1.536       .  S
C2348      O2349   1.258       .  A
O2349     Cr2354   2.001       .  S
O2350     Cr2354   2.134       .  S
O2350      C2351   1.306       .  A
C2351      C2429   1.520       .  S
Cr2352     O2355   1.759       .  S
Cr2353     O2355   1.780       .  S
Cr2354     O2355   1.778       .  S
C2356      C3277   1.397       .  A
C2356      C2361   1.447       .  A
C2357      C3276   1.397       .  A
C2357      C2358   1.384       .  A
C2357      H2362   1.083       .  S
C2358      C3279   1.406       .  A
C2358      C2692   1.478       .  S
C2359      C3278   1.406       .  A
C2359      C2360   1.419       .  A
C2359      H2363   1.082       .  S
C2360      C2361   1.449       .  A
C2360      C2394   1.531       .  S
C2361      H2364   1.080       .  S
C2365      C2366   1.410       .  A
C2365      C2370   1.449       .  A
C2365      C2406   1.529       .  S
C2366      C2367   1.408       .  A
C2366      H2371   1.075       .  S
C2367      C2368   1.393       .  A
C2367      C2661   1.502       .  S
C2368      C2369   1.394       .  A
C2368      H2372   1.080       .  S
C2369      C2370   1.427       .  A
C2370      H2373   1.081       .  S
C2374      C2375   1.453       .  A
C2374      C2379   1.395       .  A
C2375      C2376   1.454       .  A
C2375      H2380   1.076       .  S
C2376      C2377   1.405       .  A
C2376      C2501   1.540       .  S
C2377      C2378   1.384       .  A
C2377      H2381   1.058       .  S
C2378      C2379   1.390       .  A
C2378      C2652   1.503       .  S
C2379      H2382   1.076       .  S
C2383      C2681   1.457       .  S
C2383      N2384   1.361       .  A
C2385      C2672   1.469       .  S
C2385      N2386   1.336       .  A
N2386      C2387   1.356       .  A
C2387      C2641   1.445       .  S
C2387      N2388   1.351       .  A
O2389     Cr2407   2.127       .  S
O2390     Cr2407   1.943       .  S
O2390      C3311   1.252       .  A
C2391      C2431   1.559       .  S
C2391      O3310   1.251       .  A
C2391      O2392   1.297       .  A
O2392     Cr3328   2.166       .  S
O2393      C2394   1.259       .  A
C2394      O2395   1.281       .  A
O2395     Cr2409   2.098       .  S
O2396     Cr2409   1.967       .  S
O2396      C2397   1.267       .  A
O2398     Cr2407   1.997       .  S
O2398      C2406   1.259       .  A
O2399     Cr2407   2.105       .  S
O2399      C2400   1.295       .  A
C2400      O2401   1.256       .  A
O2401     Cr2408   1.962       .  S
O2402      C2403   1.303       .  A
C2403      C2411   1.529       .  S
C2403      O2404   1.253       .  A
O2404     Cr2409   1.929       .  S
O2405      C2406   1.283       .  A
Cr2407     O2410   1.782       .  S
Cr2408     O3312   2.163       .  S
Cr2408     O2410   1.799       .  S
C2411      C2412   1.456       .  A
C2412      C2413   1.458       .  A
C2412      H2417   1.082       .  S
C2414      H2418   1.086       .  S
C2415      C2416   1.391       .  A
C2416      H2419   1.082       .  S
C2420      C2421   1.386       .  A
C2420      C2425   1.459       .  A
C2420      C2455   1.510       .  S
C2421      C2422   1.384       .  A
C2421      H2426   1.085       .  S
C2422      C2423   1.410       .  A
C2422      C2601   1.504       .  S
C2423      C2424   1.433       .  A
C2423      H2427   1.081       .  S
C2424      C2425   1.450       .  A
C2425      H2428   1.082       .  S
C2429      C2430   1.461       .  A
C2429      C2434   1.389       .  A
C2430      C2431   1.453       .  A
C2430      H2435   1.080       .  S
C2431      C2432   1.425       .  A
C2432      C2433   1.401       .  A
C2432      H2436   1.083       .  S
C2433      C2434   1.388       .  A
C2433      C2581   1.479       .  S
C2434      H2437   1.085       .  S
C2438      C2621   1.482       .  S
C2438      N2439   1.352       .  A
C2438      N2443   1.349       .  A
N2439      C2440   1.348   1_545  A
C2440      C2592   1.470       .  S
C2440      N2441   1.362       .  A
N2441      C2442   1.353   1_565  A
C2442      C2612   1.471       .  S
C2442      N2443   1.359       .  A
O2444     Cr2462   2.106       .  S
O2444      C2452   1.279       .  A
O2445     Cr2462   1.968       .  S
O2445      C2446   1.247       .  A
C2446      O2447   1.285       .  A
O2447     Cr2463   2.156       .  S
O2448     Cr2463   2.025       .  S
C2449      C2488   1.527   1_554  S
O2450     Cr2464   2.046       .  S
O2451     Cr2464   1.954       .  S
O2451      C2452   1.260       .  A
O2453     Cr2462   2.007       .  S
O2453      C2461   1.267       .  A
O2454     Cr2462   2.127       .  S
O2454      C2455   1.299       .  A
C2455      O2456   1.250       .  A
O2456     Cr2463   1.937       .  S
O2457     Cr2463   2.124       .  S
O2457      C2458   1.299       .  A
C2458      O2459   1.266       .  A
O2459     Cr2464   1.985       .  S
O2460     Cr2464   2.048       .  S
O2460      C2461   1.283       .  A
C2461      C2466   1.521       .  S
Cr2462     O2465   1.780       .  S
Cr2463     O2465   1.815       .  S
Cr2464     O2465   1.765       .  S
C2466      C2467   1.438       .  A
C2466      C2471   1.397       .  A
C2467      C2468   1.439       .  A
C2467      H2472   1.082       .  S
C2468      C2469   1.423       .  A
C2468      C2504   1.531       .  S
C2469      C2470   1.403       .  A
C2469      H2473   1.079       .  S
C2470      C2471   1.402       .  A
C2470      C2572   1.521       .  S
C2471      H2474   1.077       .  S
C2475      C2476   1.389       .  A
C2475      C2480   1.456       .  A
C2476      C2477   1.390       .  A
C2476      H2481   1.084       .  S
C2477      C2478   1.378       .  A
C2477      C2552   1.458       .  S
C2478      C2479   1.402       .  A
C2478      H2482   1.083       .  S
C2479      C2480   1.458       .  A
C2480      H2483   1.082       .  S
C2484      C2485   1.392       .  A
C2484      C2489   1.459       .  A
C2485      C2486   1.396   1_556  A
C2485      H2490   1.083       .  S
C2486      C2487   1.356       .  A
C2486      C2532   1.458       .  S
C2487      C2488   1.380   1_554  A
C2487      H2491   1.066       .  S
C2488      C2489   1.455       .  A
C2489      H2492   1.071       .  S
C2493      C2541   1.485       .  S
C2493      N3414   1.366       .  A
C2493      N2498   1.358       .  A
N2494      C3413   1.367       .  A
N2494      C2495   1.353       .  A
C2495      C2561   1.479       .  S
C2495      N3416   1.339       .  A
N2496      C3415   1.339       .  A
N2496      C2497   1.349       .  A
C2497      C2521   1.472       .  S
C2497      N2498   1.348       .  A
O2499     Cr2517   2.165       .  S
O2499      C3427   1.290   1_655  A
O2500     Cr2517   2.045       .  S
O2500      C2501   1.279       .  A
C2501      O2502   1.269       .  A
O2502     Cr2518   2.041       .  S
O2503     Cr3438   1.953   1_545  S
O2503      C2504   1.249       .  A
C2504      O2505   1.280       .  A
O2505     Cr2519   2.126   1_655  S
O2506     Cr2519   1.936   1_655  S
O2506      C2507   1.250   1_655  A
C2507      O3419   1.290   1_545  A
O2508     Cr2517   1.945   1_455  S
O2508      C2516   1.257       .  A
O2509     Cr2517   2.088       .  S
O2509      C2510   1.295       .  A
C2510      O2511   1.264       .  A
O2511     Cr2518   1.972       .  S
O2512     Cr3438   2.081   1_545  S
O2512      C2513   1.292   1_655  A
C2513      O2514   1.260       .  A
O2514     Cr2519   1.977       .  S
Cr2517     O2520   1.797       .  S
Cr2518     O3423   1.955       .  S
Cr2518     O3432   2.080       .  S
Cr2518     O2520   1.782       .  S
Cr2519     O3440   1.804   1_445  S
O2520     Cr3439   1.806   1_655  S
C2521      C2522   1.397       .  A
C2522      C2523   1.376       .  A
C2522     Br2538   1.908       .  S
C2523      H2527   1.075       .  S
C2524      C2525   1.401       .  A
C2524      C2528   1.483       .  S
C2525      C2526   1.402       .  A
C2525     Br2537   1.907       .  S
C2526      H2529   1.077       .  S
C2528      C2530   1.409       .  A
C2528      C2534   1.415       .  A
C2530      C2531   1.403       .  A
C2530      H2535   1.069       .  S
C2531      C2532   1.375       .  A
C2531     Br2539   1.912   1_554  S
C2532      C2533   1.400       .  A
C2533      C2534   1.398       .  A
C2533      H2536   1.082       .  S
C2534     Br2540   1.916       .  S
C2541      C2542   1.413       .  A
C2541      C2546   1.401       .  A
C2542      C2543   1.393       .  A
C2542     Br2558   1.879       .  S
C2543      C2544   1.393       .  A
C2543      H2547   1.080       .  S
C2544      C2545   1.414       .  A
C2544      C2548   1.468       .  S
C2545      C2546   1.393       .  A
C2545     Br2557   1.900       .  S
C2546      H3469   1.079       .  S
C2548      C2550   1.403       .  A
C2548      C2554   1.403       .  A
H2549      C3466   1.079   1_545  S
C2550      C2551   1.391       .  A
C2550      H2555   1.085       .  S
C2551      C2552   1.405       .  A
C2551     Br2559   1.919       .  S
C2552      C2553   1.401       .  A
C2553      C2554   1.392       .  A
C2553      H2556   1.084       .  S
C2554     Br2560   1.906       .  S
C2561      C2562   1.393   1_565  A
C2561      C2566   1.406       .  A
C2562      C2563   1.400       .  A
C2562     Br2578   1.897       .  S
C2563      C2564   1.410   1_545  A
C2563      H2567   1.078       .  S
C2564      C2565   1.414       .  A
C2564      C2568   1.497   1_565  S
C2565      C2566   1.399       .  A
C2565     Br2577   1.921       .  S
C2566      H3489   1.084       .  S
C2568      C2570   1.404   1_545  A
C2568      C2574   1.410       .  A
H2569      C3486   1.084       .  S
C2570      C2571   1.407   1_565  A
C2570      H2575   1.083       .  S
C2571      C2572   1.424       .  A
C2571     Br2579   1.915   1_545  S
C2572      C2573   1.412       .  A
C2573      C2574   1.394       .  A
C2573      H2576   1.078       .  S
C2574     Br2580   1.919       .  S
C2581      C2582   1.407       .  A
C2581      C2586   1.401       .  A
C2582      C2583   1.391       .  A
C2582     Br2598   1.891       .  S
C2583      C2584   1.398       .  A
C2583      H2587   1.085       .  S
C2584      C2585   1.421       .  A
C2584      C2588   1.483       .  S
C2585      C2586   1.403       .  A
C2585     Br3517   1.922       .  S
C2586      H2589   1.084       .  S
C2588      C2590   1.415       .  A
C2588      C3514   1.411       .  A
C2590      C2591   1.394       .  A
C2590      H2595   1.081       .  S
C2591      C3512   1.393       .  A
C2591     Br2599   1.911       .  S
C2592      C3511   1.392       .  A
C2592      C2593   1.404   1_565  A
C2593      C2594   1.395       .  A
C2593      H2596   1.083       .  S
C2594      C3508   1.412   1_545  A
C2594     Br2600   1.911       .  S
Br2597     C3505   1.923       .  S
C2601      C2602   1.423       .  A
C2601      C2606   1.411       .  A
C2602      C2603   1.385       .  A
C2602     Br2618   1.925       .  S
C2603      C2604   1.391       .  A
C2603      H2607   1.076       .  S
C2604      C2605   1.407       .  A
C2604      C2608   1.486       .  S
C2605      C2606   1.409       .  A
C2605     Br2617   1.918       .  S
C2606      H2609   1.069       .  S
C2608      C2610   1.405       .  A
C2608      C2614   1.425       .  A
C2610      C2611   1.404       .  A
C2610      H2615   1.082       .  S
C2611      C2612   1.405       .  A
C2611     Br2619   1.910   1_545  S
C2612      C2613   1.388       .  A
C2613      C2614   1.386       .  A
C2613      H2616   1.082       .  S
C2614     Br2620   1.921       .  S
C2621      C2622   1.415       .  A
C2621      C2626   1.402       .  A
C2622      C2623   1.396       .  A
C2622     Br2638   1.892       .  S
C2623      C2624   1.392       .  A
C2623      H2627   1.083       .  S
C2624      C2625   1.402       .  A
C2624      C2628   1.455       .  S
C2625      C2626   1.376       .  A
C2625     Br2637   1.911       .  S
C2626      H2629   1.081       .  S
C2628      C2630   1.397       .  A
C2628      C2634   1.398       .  A
C2630      C2631   1.379       .  A
C2630      H2635   1.085       .  S
C2631      C2632   1.410       .  A
C2632      C2633   1.407       .  A
C2633      C2634   1.399       .  A
C2634     Br2640   1.908       .  S
C2641      C2642   1.401       .  A
C2641      C2646   1.400       .  A
C2642      C2643   1.385       .  A
C2642     Br2658   1.925       .  S
C2643      C2644   1.404       .  A
C2643      H2647   1.077       .  S
C2644      C2645   1.401       .  A
C2644      C2648   1.457       .  S
C2645      C2646   1.396       .  A
C2645     Br2657   1.905       .  S
C2646      H2649   1.083       .  S
C2648      C2650   1.398       .  A
C2648      C2654   1.390       .  A
C2650      C2651   1.398       .  A
C2650      H2655   1.082       .  S
C2651      C2652   1.415       .  A
C2651     Br2659   1.908       .  S
C2652      C2653   1.408       .  A
C2653      C2654   1.403       .  A
C2653      H2656   1.075       .  S
C2654     Br2660   1.911       .  S
C2661      C2662   1.413       .  A
C2661      C2666   1.425       .  A
C2662      C2663   1.389       .  A
C2662     Br2678   1.913       .  S
C2663      C2664   1.408       .  A
C2663      H2667   1.082       .  S
C2664      C2665   1.390       .  A
C2664      C2668   1.478       .  S
C2665      C2666   1.395       .  A
C2665     Br2677   1.914       .  S
C2666      H2669   1.083       .  S
C2668      C2670   1.397       .  A
C2668      C2674   1.405       .  A
C2670      C2671   1.398       .  A
C2670      H2675   1.081       .  S
C2671     Br2679   1.911       .  S
C2672      C2673   1.409       .  A
C2673      H2676   1.081       .  S
C2674     Br2680   1.920       .  S
C2681      C2682   1.399       .  A
C2681      C2686   1.401       .  A
C2683      H2687   1.077       .  S
C2684      C2685   1.414       .  A
C2684      C2688   1.495       .  S
C2685      C2686   1.402       .  A
C2685     Br2697   1.912       .  S
C2686      H2689   1.083       .  S
C2690      C2691   1.405       .  A
C2690      H2695   1.080       .  S
C2691      C2692   1.400       .  A
C2691     Br3619   1.895       .  S
C2692      C2693   1.394       .  A
C2693      C2694   1.377       .  A
C2693      H2696   1.069       .  S
Br2699     C3611   1.895       .  S
C2701      C2702   1.411       .  A
C2701      C2706   1.400       .  A
C2702      C2703   1.395       .  A
C2702     Br2718   1.903       .  S
C2703      C2704   1.395       .  A
C2703      H2707   1.084       .  S
C2704      C2705   1.403       .  A
C2704      C2708   1.466       .  S
C2705      C2706   1.391       .  A
C2705     Br2717   1.892       .  S
C2706      H2709   1.084       .  S
C2708      C2714   1.396       .  A
C2710      C2711   1.399       .  A
C2710      H2715   1.082       .  S
C2711      C2712   1.407   1_455  A
C2711     Br2719   1.908       .  S
C2712      C2713   1.413       .  A
C2713      H2716   1.083       .  S
C2714     Br2720   1.913       .  S
C2721      C2722   1.402       .  A
C2721      C2726   1.408       .  A
C2722      C2723   1.397       .  A
C2722     Br2738   1.909       .  S
C2723      C2724   1.406       .  A
C2723      H2727   1.084       .  S
C2724      C2725   1.401       .  A
C2724      C2728   1.471       .  S
C2725      C2726   1.395       .  A
C2725     Br2737   1.913       .  S
C2726      H2729   1.082       .  S
C2728      C2730   1.406       .  A
C2728      C2734   1.417       .  A
C2730      C2731   1.404       .  A
C2730      H2735   1.083       .  S
C2731      C2732   1.409       .  A
C2731     Br2739   1.912       .  S
C2732      C2733   1.401       .  A
C2733      C2734   1.393       .  A
C2733      H2736   1.075       .  S
C2734     Br2740   1.922       .  S
C2741      C2742   1.404       .  A
C2741      C2746   1.409       .  A
C2742      C2743   1.402       .  A
C2742     Br2758   1.921       .  S
C2743      C2744   1.405       .  A
C2743      H2747   1.073       .  S
C2744      C2745   1.413       .  A
C2744      C2748   1.525       .  S
C2745      C2746   1.409       .  A
C2745     Br2757   1.914       .  S
C2746      H2749   1.083       .  S
C2748      C2750   1.412       .  A
C2748      C2754   1.407       .  A
C2750      C2751   1.403       .  A
C2750      H2755   1.082       .  S
C2751      C2752   1.411       .  A
C2751     Br2759   1.893       .  S
C2752      C2753   1.408       .  A
C2753      C2754   1.394       .  A
C2753      H2756   1.073       .  S
C2754     Br2760   1.900       .  S
C2761      C2762   1.408       .  A
C2761      C2766   1.461       .  A
C2761      C2918   1.547       .  S
C2762      C2763   1.407       .  A
C2762      H2767   1.081       .  S
C2763      C2764   1.390       .  A
C2763      C3212   1.507       .  S
C2764      C2765   1.396       .  A
C2764      H2768   1.066       .  S
C2765      C2766   1.452       .  A
C2765      C2857   1.555       .  S
C2766      H3229   1.071       .  S
H2769      C3226   1.072       .  S
C2770      C2771   1.384       .  A
C2770      C2775   1.467       .  A
C2770      C2860   1.526       .  S
C2771      C2772   1.386       .  A
C2771      H2776   1.085       .  S
C2772      C2773   1.397       .  A
C2772      C3181   1.485       .  S
C2774      C2967   1.570       .  S
C2779      C2780   1.468       .  A
C2779      C2784   1.408       .  A
C2779      C2970   1.544       .  S
C2780      C2781   1.455       .  A
C2780      H2785   1.081       .  S
C2781      C2782   1.404       .  A
C2781      C2906   1.555       .  S
C2782      C2783   1.389       .  A
C2782      H2786   1.084       .  S
C2783      C2784   1.403       .  A
C2783      C3172   1.489       .  S
C2784      H2787   1.084       .  S
C2788      C3161   1.473       .  S
C2788      N2789   1.358       .  A
C2788      N2793   1.350       .  A
N2789      C2790   1.355       .  A
C2790      C3192   1.493       .  S
C2790      N2791   1.359       .  A
N2791      C2792   1.356       .  A
C2792      C3201   1.450       .  S
C2792      N2793   1.354       .  A
O2794     Cr2812   2.086       .  S
O2794      C2802   1.273       .  A
O2795     Cr2812   1.981       .  S
O2795      C2796   1.247       .  A
C2796      C2829   1.527       .  S
C2796      O2797   1.274       .  A
O2797     Cr2813   2.124       .  S
O2798     Cr2813   1.961       .  S
O2798      C2799   1.259       .  A
C2799      C2884   1.569       .  S
C2799      O2800   1.301       .  A
O2800     Cr2814   2.175       .  S
O2801     Cr2814   1.987       .  S
O2801      C2802   1.265       .  A
C2802      C2939   1.535       .  S
O2803     Cr2812   1.941       .  S
O2803      C2811   1.259       .  A
O2804     Cr2812   2.129       .  S
O2804      C2805   1.305       .  A
C2805      C2944   1.546       .  S
C2805      O2806   1.259       .  A
O2806     Cr2813   1.989       .  S
O2807     Cr2813   2.061       .  S
O2807      C2808   1.289       .  A
C2808      C2834   1.540       .  S
C2808      O2809   1.258       .  A
O2809     Cr2814   2.007       .  S
O2810     Cr2814   2.129       .  S
O2810      C2811   1.305       .  A
C2811      C2889   1.516       .  S
Cr2812     O2815   1.761       .  S
Cr2813     O2815   1.785       .  S
Cr2814     O2815   1.782       .  S
C2816      C2821   1.447       .  A
C2817      C2818   1.386       .  A
C2817      H2822   1.083       .  S
C2818      C3152   1.473       .  S
C2819      C2820   1.414       .  A
C2819      H2823   1.082       .  S
C2820      C2821   1.449       .  A
C2820      C2854   1.524       .  S
C2821      H2824   1.080       .  S
C2825      C2826   1.408       .  A
C2825      C2830   1.448       .  A
C2825      C2866   1.528       .  S
C2826      C2827   1.408       .  A
C2826      H2831   1.072       .  S
C2827      C2828   1.396       .  A
C2827      C3121   1.510       .  S
C2828      C2829   1.396       .  A
C2828      H2832   1.075       .  S
C2829      C2830   1.428       .  A
C2830      H2833   1.082       .  S
C2834      C2835   1.455       .  A
C2834      C2839   1.393       .  A
C2835      C2836   1.457       .  A
C2835      H2840   1.075       .  S
C2836      C2837   1.401       .  A
C2836      C2961   1.540       .  S
C2837      C2838   1.378       .  A
C2837      H2841   1.058       .  S
C2838      C2839   1.390       .  A
C2838      C3112   1.499       .  S
C2839      H2842   1.074       .  S
C2843      C3141   1.453       .  S
C2843      N2844   1.360   1_554  A
C2843      N3308   1.354   1_554  A
N2844      C3305   1.346       .  A
C2845      C3132   1.468       .  S
C2845      N3304   1.346       .  A
C2845      N2846   1.336       .  A
N2846      C2847   1.357       .  A
C2847      C3101   1.452       .  S
C2847      N2848   1.358       .  A
N2848      C3303   1.358       .  A
O2849     Cr2867   2.135       .  S
O2849      C3317   1.292       .  A
O2850     Cr2867   1.943       .  S
C2851      C2891   1.555       .  S
C2851      O2852   1.298       .  A
O2853     Cr3328   1.988   1_554  S
O2853      C2854   1.260       .  A
C2854      O2855   1.280       .  A
O2855     Cr2869   2.090       .  S
O2856     Cr2869   1.963       .  S
O2856      C2857   1.265       .  A
C2857      O3309   1.290   1_554  A
O2858     Cr2867   1.992       .  S
O2858      C2866   1.258       .  A
O2859     Cr2867   2.109       .  S
O2859      C2860   1.296       .  A
C2860      O2861   1.256       .  A
O2861     Cr2868   1.967       .  S
O2862     Cr3328   2.171       .  S
O2862      C2863   1.304       .  A
C2863      C2871   1.537       .  S
C2863      O2864   1.252       .  A
O2864     Cr2869   1.931   1_556  S
O2865     Cr3329   2.068       .  S
O2865      C2866   1.285       .  A
Cr2867     O2870   1.785       .  S
Cr2868     O3313   1.984       .  S
Cr2868     O3322   2.161       .  S
Cr2868     O2870   1.802       .  S
Cr2869     O3325   2.062   1_554  S
Cr2869     O3330   1.786   1_554  S
O2870     Cr3329   1.789       .  S
C2871      C2872   1.459   1_556  A
C2871      C3336   1.399       .  A
C2872      C2873   1.462       .  A
C2872      H2877   1.082       .  S
C2874      H2878   1.086       .  S
C2875      C2876   1.390       .  A
C2876      C3331   1.398       .  A
C2876      H2879   1.081       .  S
C2880      C2881   1.385       .  A
C2880      C2885   1.461       .  A
C2880      C2915   1.511       .  S
C2881      C2882   1.382       .  A
C2881      H2886   1.085       .  S
C2882      C2883   1.407       .  A
C2882      C3061   1.501       .  S
C2883      C2884   1.432       .  A
C2883      H2887   1.081       .  S
C2884      C2885   1.452       .  A
C2885      H2888   1.082       .  S
C2889      C2890   1.458       .  A
C2889      C2894   1.389       .  A
C2890      C2891   1.451   1_565  A
C2890      H2895   1.080       .  S
C2891      C2892   1.424       .  A
C2892      C2893   1.401       .  A
C2892      H2896   1.083       .  S
C2893      C2894   1.387   1_545  A
C2893      C3041   1.478       .  S
C2894      H2897   1.086       .  S
C2898      C3081   1.483       .  S
C2898      N2899   1.353       .  A
C2898      N2903   1.349       .  A
N2899      C2900   1.350       .  A
C2900      C3052   1.471       .  S
C2900      N2901   1.362       .  A
N2901      C2902   1.352       .  A
C2902      C3072   1.469       .  S
C2902      N2903   1.359       .  A
O2904     Cr2922   2.114       .  S
O2904      C2912   1.282       .  A
O2905     Cr2922   1.971       .  S
O2905      C2906   1.249       .  A
C2906      O2907   1.284       .  A
O2907     Cr2923   2.155       .  S
O2908     Cr2923   2.019       .  S
O2908      C3369   1.266       .  A
C2909      C2948   1.531       .  S
C2909      O3368   1.267       .  A
C2909      O3370   1.280       .  A
O2910     Cr2924   2.044       .  S
O2910      C3369   1.280       .  A
O2911     Cr2924   1.958       .  S
O2911      C2912   1.262       .  A
O2913     Cr2922   2.006       .  S
O2913      C2921   1.266       .  A
O2914     Cr2922   2.134       .  S
O2914      C2915   1.301       .  A
C2915      O2916   1.249       .  A
O2916     Cr2923   1.931       .  S
O2917     Cr2923   2.123       .  S
O2917      C2918   1.299       .  A
C2918      O2919   1.266       .  A
O2919     Cr2924   1.989       .  S
O2920     Cr2924   2.043       .  S
O2920      C2921   1.282       .  A
C2921      C2926   1.522       .  S
Cr2922     O2925   1.780       .  S
Cr2923     O2925   1.815       .  S
Cr2924     O2925   1.767       .  S
C2926      C2927   1.440       .  A
C2926      C2931   1.395       .  A
C2927      C2928   1.441       .  A
C2927      H2932   1.082       .  S
C2928      C2929   1.421       .  A
C2928      C2964   1.530       .  S
C2929      C2930   1.400       .  A
C2929      H2933   1.080       .  S
C2930      C2931   1.398       .  A
C2930      C3032   1.516       .  S
C2931      H2934   1.076       .  S
C2935      C2936   1.388       .  A
C2935      C2940   1.461       .  A
C2936      C2937   1.389       .  A
C2936      H2941   1.084       .  S
C2937      C2938   1.383       .  A
C2937      C3012   1.462       .  S
C2938      C2939   1.403       .  A
C2938      H2942   1.083       .  S
C2939      C2940   1.464       .  A
C2940      H2943   1.082       .  S
C2944      C2945   1.395       .  A
C2944      C2949   1.466       .  A
C2945      C2946   1.397       .  A
C2945      H2950   1.082       .  S
C2946      C2947   1.356       .  A
C2946      C2992   1.456       .  S
C2947      C2948   1.376       .  A
C2947      H2951   1.066       .  S
C2948      C2949   1.456       .  A
C2949      H2952   1.067       .  S
C2953      C3001   1.483       .  S
C2953      N2958   1.357   1_554  A
N2954      C2955   1.353       .  A
C2955      C3021   1.476       .  S
N2956      C2957   1.351   1_554  A
C2957      C2981   1.475       .  S
C2957      N2958   1.347       .  A
O2959     Cr2977   2.170       .  S
O2960     Cr2977   2.043       .  S
O2960      C2961   1.277       .  A
C2961      O2962   1.270       .  A
O2962     Cr2978   2.042       .  S
O2963      C2964   1.250       .  A
C2964      O2965   1.279       .  A
O2965     Cr2979   2.125   1_655  S
O2966     Cr2979   1.940   1_655  S
O2966      C2967   1.249   1_655  A
O2968     Cr2977   1.946   1_455  S
O2968      C2976   1.257       .  A
O2969     Cr2977   2.101       .  S
O2969      C2970   1.299       .  A
C2970      O2971   1.264       .  A
O2971     Cr2978   1.977       .  S
O2972      C2973   1.293   1_655  A
C2973      O2974   1.263       .  A
O2974     Cr2979   1.982       .  S
Cr2977     O2980   1.796       .  S
Cr2978     O2980   1.785       .  S
C2981      C2982   1.397       .  A
C2981      C3446   1.415   1_556  A
C2982      C2983   1.375   1_556  A
C2982     Br2998   1.909       .  S
C2983      C3444   1.403       .  A
C2983      H2987   1.073       .  S
C2984      C3443   1.405       .  A
C2984      C2985   1.403       .  A
C2984      C2988   1.483       .  S
C2985      C2986   1.400       .  A
C2985     Br2997   1.903       .  S
C2986      C3441   1.411       .  A
C2986      H2989   1.080       .  S
C2988      C2990   1.410       .  A
C2988      C2994   1.418       .  A
C2990      C2991   1.401       .  A
C2990      H2995   1.074       .  S
C2991      C2992   1.376       .  A
C2991     Br2999   1.906       .  S
C2992      C2993   1.400       .  A
C2993      C2994   1.397       .  A
C2993      H2996   1.083       .  S
C2994     Br3000   1.919       .  S
C3001      C3002   1.412       .  A
C3001      C3006   1.401       .  A
C3002      C3003   1.395       .  A
C3002     Br3018   1.885       .  S
C3003      C3004   1.395       .  A
C3003      H3007   1.080       .  S
C3004      C3005   1.415       .  A
C3004      C3008   1.471       .  S
C3005      C3006   1.394       .  A
C3005     Br3017   1.901       .  S
C3008      C3010   1.404       .  A
C3008      C3014   1.405       .  A
C3010      C3011   1.391       .  A
C3010      H3015   1.084       .  S
C3011      C3012   1.404       .  A
C3011     Br3019   1.918       .  S
C3012      C3013   1.404       .  A
C3013      C3014   1.396       .  A
C3013      H3016   1.084       .  S
C3014     Br3020   1.909       .  S
C3021      C3022   1.394       .  A
C3021      C3026   1.407       .  A
C3022      C3023   1.396       .  A
C3022     Br3038   1.900       .  S
C3023      C3024   1.407       .  A
C3023      H3027   1.077       .  S
C3024      C3025   1.412       .  A
C3024      C3028   1.491       .  S
C3025      C3026   1.398       .  A
C3025     Br3037   1.920       .  S
C3028      C3030   1.403       .  A
C3028      C3034   1.409       .  A
C3030      C3031   1.405       .  A
C3030      H3035   1.083       .  S
C3031      C3032   1.422       .  A
C3031     Br3039   1.913       .  S
C3032      C3033   1.412       .  A
C3033      C3034   1.390       .  A
C3033      H3036   1.077       .  S
C3034     Br3040   1.921       .  S
C3041      C3042   1.409   1_545  A
C3041      C3046   1.401       .  A
C3042      C3043   1.391       .  A
C3042     Br3058   1.893       .  S
C3043      C3044   1.398   1_565  A
C3043      H3047   1.085       .  S
C3044      C3045   1.419       .  A
C3044      C3048   1.481       .  S
C3045      C3046   1.401       .  A
C3046      H3049   1.084       .  S
C3048      C3050   1.415   1_545  A
C3050      C3051   1.396       .  A
C3050      H3055   1.081       .  S
C3051     Br3059   1.912       .  S
C3052      C3053   1.405       .  A
C3053      C3054   1.395       .  A
C3053      H3056   1.083       .  S
C3054     Br3060   1.913       .  S
C3061      C3062   1.424       .  A
C3061      C3066   1.411       .  A
C3062      C3063   1.383       .  A
C3062     Br3078   1.928       .  S
C3063      C3064   1.390       .  A
C3063      H3067   1.076       .  S
C3064      C3065   1.408       .  A
C3064      C3068   1.484       .  S
C3065      C3066   1.408       .  A
C3065     Br3077   1.917       .  S
C3066      H3069   1.073       .  S
C3068      C3070   1.405       .  A
C3068      C3074   1.425       .  A
C3070      C3071   1.403       .  A
C3070      H3075   1.081       .  S
C3071      C3072   1.405       .  A
C3071     Br3079   1.912       .  S
C3072      C3073   1.389       .  A
C3073      C3074   1.386       .  A
C3073      H3076   1.082       .  S
C3074     Br3080   1.925       .  S
C3081      C3082   1.415       .  A
C3081      C3086   1.400       .  A
C3082      C3083   1.400       .  A
C3082     Br3098   1.895       .  S
C3083      C3084   1.395       .  A
C3083      H3087   1.083       .  S
C3084      C3085   1.405       .  A
C3084      C3088   1.460       .  S
C3085      C3086   1.376       .  A
C3085     Br3097   1.908       .  S
C3086      H3089   1.082       .  S
C3088      C3090   1.396       .  A
C3088      C3094   1.398       .  A
C3090      C3091   1.378       .  A
C3090      H3095   1.085       .  S
C3091      C3092   1.411       .  A
C3091     Br3559   1.921       .  S
C3092      C3093   1.407       .  A
C3093      C3094   1.399       .  A
C3094     Br3100   1.905       .  S
Br3099     C3551   1.921       .  S
C3101      C3102   1.410       .  A
C3101      C3106   1.403       .  A
C3102      C3103   1.386       .  A
C3102     Br3118   1.927       .  S
C3103      C3104   1.401       .  A
C3103      H3107   1.081       .  S
C3104      C3105   1.401       .  A
C3104      C3108   1.459       .  S
C3105      C3106   1.400       .  A
C3105     Br3117   1.914       .  S
C3106      H3109   1.082       .  S
C3108      C3110   1.397       .  A
C3108      C3114   1.390       .  A
C3110      C3111   1.397       .  A
C3110      H3115   1.078       .  S
C3111      C3112   1.416       .  A
C3111     Br3119   1.913       .  S
C3112      C3113   1.406       .  A
C3113      C3114   1.402       .  A
C3113      H3116   1.076       .  S
C3114     Br3120   1.907       .  S
C3121      C3122   1.417       .  A
C3121      C3126   1.427       .  A
C3122      C3123   1.389       .  A
C3122     Br3138   1.915       .  S
C3123      C3124   1.407       .  A
C3123      H3127   1.080       .  S
C3124      C3125   1.390       .  A
C3124      C3128   1.480       .  S
C3125      C3126   1.396       .  A
C3125     Br3137   1.914       .  S
C3126      H3129   1.082       .  S
C3128      C3130   1.397       .  A
C3128      C3134   1.404       .  A
C3130      C3131   1.398       .  A
C3130      H3135   1.081       .  S
C3131     Br3139   1.920       .  S
C3132      C3133   1.408       .  A
C3133      H3136   1.078       .  S
C3134     Br3140   1.918       .  S
C3141      C3142   1.396       .  A
C3141      C3146   1.401       .  A
C3143      H3147   1.078       .  S
C3144      C3145   1.413       .  A
C3144      C3148   1.493       .  S
C3145      C3146   1.400       .  A
C3145     Br3157   1.914       .  S
C3146      H3149   1.083       .  S
C3150      C3151   1.406   1_565  A
C3150      H3155   1.079       .  S
C3151      C3152   1.399       .  A
C3152      C3153   1.392   1_545  A
C3153      C3154   1.374       .  A
C3153      H3156   1.071       .  S
C3161      C3162   1.412       .  A
C3161      C3166   1.399       .  A
C3162      C3163   1.398       .  A
C3162     Br3178   1.911       .  S
C3163      C3164   1.398       .  A
C3163      H3167   1.083       .  S
C3164      C3165   1.403       .  A
C3164      C3168   1.468       .  S
C3165      C3166   1.390       .  A
C3165     Br3177   1.896       .  S
C3166      H3169   1.084       .  S
C3168      C3174   1.396       .  A
C3170      C3171   1.399       .  A
C3170      H3175   1.081       .  S
C3171      C3172   1.408   1_455  A
C3171     Br3179   1.908       .  S
C3172      C3173   1.414       .  A
C3173      H3176   1.083       .  S
C3174     Br3180   1.913       .  S
C3181      C3182   1.406       .  A
C3181      C3186   1.410       .  A
C3182      C3183   1.396       .  A
C3182     Br3198   1.913       .  S
C3183      C3184   1.405       .  A
C3183      H3187   1.084       .  S
C3184      C3185   1.401       .  A
C3184      C3188   1.471       .  S
C3185      C3186   1.397       .  A
C3185     Br3197   1.920       .  S
C3186      H3189   1.083       .  S
C3188      C3190   1.406       .  A
C3188      C3194   1.416       .  A
C3190      C3191   1.403       .  A
C3190      H3195   1.083       .  S
C3191      C3192   1.409       .  A
C3191     Br3199   1.911       .  S
C3192      C3193   1.400       .  A
C3193      C3194   1.392       .  A
C3193      H3196   1.077       .  S
C3194     Br3200   1.923       .  S
C3201      C3202   1.402       .  A
C3201      C3206   1.409       .  A
C3202      C3203   1.401       .  A
C3202     Br3218   1.919       .  S
C3203      C3204   1.405       .  A
C3203      H3207   1.071       .  S
C3204      C3205   1.413       .  A
C3204      C3208   1.524       .  S
C3205      C3206   1.407       .  A
C3205     Br3217   1.914       .  S
C3206      H3209   1.083       .  S
C3208      C3210   1.409       .  A
C3208      C3214   1.404       .  A
C3210      C3211   1.403       .  A
C3210      H3215   1.081       .  S
C3211      C3212   1.415       .  A
C3211     Br3219   1.894       .  S
C3212      C3213   1.410       .  A
C3213      C3214   1.394       .  A
C3213      H3216   1.074       .  S
C3214     Br3220   1.895       .  S
C3221      C3222   1.408       .  A
C3221      C3226   1.464       .  A
C3221      C3378   1.546       .  S
C3222      C3223   1.405       .  A
C3222      H3227   1.082       .  S
C3223      C3224   1.389       .  A
C3223      C3672   1.506       .  S
C3224      C3225   1.393       .  A
C3224      H3228   1.061       .  S
C3225      C3226   1.456       .  A
C3225      C3317   1.564       .  S
C3230      C3231   1.380       .  A
C3230      C3235   1.465       .  A
C3230      C3320   1.520       .  S
C3231      C3232   1.381       .  A
C3231      H3236   1.085       .  S
C3232      C3233   1.395       .  A
C3232      C3641   1.479       .  S
C3234      C3427   1.567       .  S
C3239      C3240   1.463       .  A
C3239      C3244   1.404       .  A
C3239      C3430   1.531       .  S
C3240      C3241   1.450       .  A
C3240      H3245   1.082       .  S
C3241      C3242   1.408       .  A
C3241      C3366   1.553       .  S
C3242      C3243   1.391       .  A
C3242      H3246   1.085       .  S
C3243      C3244   1.398       .  A
C3243      C3632   1.486       .  S
C3244      H3247   1.084       .  S
C3248      C3621   1.474       .  S
C3248      N3249   1.360       .  A
C3248      N3253   1.351       .  A
N3249      C3250   1.356       .  A
C3250      C3652   1.496       .  S
C3250      N3251   1.360       .  A
N3251      C3252   1.356       .  A
C3252      C3661   1.452       .  S
C3252      N3253   1.354       .  A
O3254     Cr3272   2.077       .  S
O3254      C3262   1.271       .  A
O3255     Cr3272   1.975       .  S
O3255      C3256   1.247       .  A
C3256      C3289   1.524       .  S
C3256      O3257   1.273       .  A
O3257     Cr3273   2.119       .  S
O3258     Cr3273   1.958       .  S
O3258      C3259   1.255       .  A
C3259      C3344   1.566       .  S
C3259      O3260   1.301       .  A
O3260     Cr3274   2.178       .  S
O3261     Cr3274   1.977       .  S
O3261      C3262   1.263       .  A
C3262      C3399   1.525       .  S
O3263     Cr3272   1.944       .  S
O3263      C3271   1.259       .  A
O3264     Cr3272   2.116       .  S
O3264      C3265   1.302       .  A
C3265      C3404   1.534       .  S
C3265      O3266   1.256       .  A
O3266     Cr3273   1.977       .  S
O3267     Cr3273   2.059       .  S
O3267      C3268   1.289       .  A
C3268      C3294   1.537       .  S
C3268      O3269   1.258       .  A
O3269     Cr3274   2.003       .  S
O3270     Cr3274   2.135       .  S
O3270      C3271   1.307       .  A
C3271      C3349   1.521       .  S
Cr3272     O3275   1.759       .  S
Cr3273     O3275   1.780       .  S
Cr3274     O3275   1.777       .  S
C3276      C3281   1.446       .  A
C3277      C3278   1.384       .  A
C3277      H3282   1.083       .  S
C3278      C3612   1.478       .  S
C3279      C3280   1.418       .  A
C3279      H3283   1.082       .  S
C3280      C3281   1.449       .  A
C3280      C3314   1.530       .  S
C3281      H3284   1.080       .  S
C3285      C3286   1.408       .  A
C3285      C3290   1.448       .  A
C3285      C3326   1.526       .  S
C3286      C3287   1.406       .  A
C3286      H3291   1.073       .  S
C3287      C3288   1.393       .  A
C3287      C3581   1.502       .  S
C3288      C3289   1.395       .  A
C3288      H3292   1.079       .  S
C3289      C3290   1.426       .  A
C3290      H3293   1.081       .  S
C3294      C3295   1.452       .  A
C3294      C3299   1.393       .  A
C3295      C3296   1.455       .  A
C3295      H3300   1.075       .  S
C3296      C3297   1.405       .  A
C3296      C3421   1.540       .  S
C3297      C3298   1.383       .  A
C3297      H3301   1.058       .  S
C3298      C3299   1.390       .  A
C3298      C3572   1.502       .  S
C3299      H3302   1.075       .  S
C3303      C3601   1.458       .  S
C3303      N3304   1.360       .  A
C3305      C3592   1.472       .  S
C3305      N3306   1.338       .  A
N3306      C3307   1.361       .  A
C3307      C3561   1.449       .  S
C3307      N3308   1.354       .  A
O3309     Cr3327   2.126       .  S
O3310     Cr3327   1.942       .  S
C3311      C3351   1.559       .  S
C3311      O3312   1.297       .  A
O3313      C3314   1.259       .  A
C3314      O3315   1.281       .  A
O3315     Cr3329   2.097       .  S
O3316     Cr3329   1.965       .  S
O3316      C3317   1.267       .  A
O3318     Cr3327   1.994       .  S
O3318      C3326   1.259       .  A
O3319     Cr3327   2.105       .  S
O3319      C3320   1.296       .  A
C3320      O3321   1.256       .  A
O3321     Cr3328   1.961       .  S
O3322      C3323   1.303       .  A
C3323      C3331   1.529       .  S
C3323      O3324   1.252       .  A
O3324     Cr3329   1.927       .  S
O3325      C3326   1.283       .  A
Cr3327     O3330   1.780       .  S
Cr3328     O3330   1.798       .  S
C3331      C3332   1.456       .  A
C3332      C3333   1.459       .  A
C3332      H3337   1.082       .  S
C3334      H3338   1.086       .  S
C3335      C3336   1.393       .  A
C3336      H3339   1.081       .  S
C3340      C3341   1.385       .  A
C3340      C3345   1.458       .  A
C3340      C3375   1.505       .  S
C3341      C3342   1.381       .  A
C3341      H3346   1.086       .  S
C3342      C3343   1.409       .  A
C3342      C3521   1.503       .  S
C3343      C3344   1.433       .  A
C3343      H3347   1.080       .  S
C3344      C3345   1.449       .  A
C3345      H3348   1.082       .  S
C3349      C3350   1.461       .  A
C3349      C3354   1.389       .  A
C3350      C3351   1.453   1_565  A
C3350      H3355   1.080       .  S
C3351      C3352   1.425       .  A
C3352      C3353   1.402       .  A
C3352      H3356   1.083       .  S
C3353      C3354   1.388   1_545  A
C3353      C3501   1.479       .  S
C3354      H3357   1.085       .  S
C3358      C3541   1.484       .  S
C3358      N3359   1.352       .  A
C3358      N3363   1.350       .  A
N3359      C3360   1.347       .  A
C3360      C3512   1.470       .  S
C3360      N3361   1.361       .  A
N3361      C3362   1.353       .  A
C3362      C3532   1.470       .  S
C3362      N3363   1.361       .  A
O3364     Cr3382   2.105       .  S
O3364      C3372   1.279       .  A
O3365     Cr3382   1.966       .  S
O3365      C3366   1.247       .  A
C3366      O3367   1.285       .  A
O3367     Cr3383   2.158       .  S
O3368     Cr3383   2.024       .  S
C3369      C3408   1.522   1_554  S
O3370     Cr3384   2.047       .  S
O3371     Cr3384   1.952       .  S
O3371      C3372   1.261       .  A
O3373     Cr3382   2.006       .  S
O3373      C3381   1.267       .  A
O3374     Cr3382   2.126       .  S
O3374      C3375   1.298       .  A
C3375      O3376   1.248       .  A
O3376     Cr3383   1.930       .  S
O3377     Cr3383   2.124       .  S
O3377      C3378   1.300       .  A
C3378      O3379   1.266       .  A
O3379     Cr3384   1.986       .  S
O3380     Cr3384   2.047       .  S
O3380      C3381   1.282       .  A
C3381      C3386   1.520       .  S
Cr3382     O3385   1.781       .  S
Cr3383     O3385   1.814       .  S
Cr3384     O3385   1.764       .  S
C3386      C3387   1.438       .  A
C3386      C3391   1.396       .  A
C3387      C3388   1.440       .  A
C3387      H3392   1.082       .  S
C3388      C3389   1.422       .  A
C3388      C3424   1.532       .  S
C3389      C3390   1.402       .  A
C3389      H3393   1.079       .  S
C3390      C3391   1.401       .  A
C3390      C3492   1.520       .  S
C3391      H3394   1.077       .  S
C3395      C3396   1.388       .  A
C3395      C3400   1.455       .  A
C3396      C3397   1.390       .  A
C3396      H3401   1.084       .  S
C3397      C3398   1.379       .  A
C3397      C3472   1.458       .  S
C3398      C3399   1.403       .  A
C3398      H3402   1.083       .  S
C3399      C3400   1.457       .  A
C3400      H3403   1.082       .  S
C3404      C3405   1.393       .  A
C3404      C3409   1.459       .  A
C3405      C3406   1.396   1_556  A
C3405      H3410   1.082       .  S
C3406      C3407   1.357       .  A
C3406      C3452   1.458       .  S
C3407      C3408   1.378   1_554  A
C3407      H3411   1.064       .  S
C3408      C3409   1.450       .  A
C3409      H3412   1.067       .  S
C3413      C3461   1.486       .  S
C3413      N3418   1.358       .  A
N3414      C3415   1.352       .  A
C3415      C3481   1.476       .  S
N3416      C3417   1.349       .  A
C3417      C3441   1.472       .  S
C3417      N3418   1.348       .  A
O3419     Cr3437   2.165   1_455  S
O3420     Cr3437   2.043       .  S
O3420      C3421   1.279       .  A
C3421      O3422   1.270       .  A
O3422     Cr3438   2.042       .  S
O3423      C3424   1.250       .  A
C3424      O3425   1.280       .  A
O3425     Cr3439   2.127   1_655  S
O3426     Cr3439   1.935   1_655  S
O3426      C3427   1.249   1_655  A
O3428     Cr3437   1.948   1_455  S
O3428      C3436   1.257       .  A
O3429     Cr3437   2.087       .  S
O3429      C3430   1.296       .  A
C3430      O3431   1.264       .  A
O3431     Cr3438   1.968       .  S
O3432      C3433   1.292   1_655  A
C3433      O3434   1.260       .  A
O3434     Cr3439   1.977       .  S
Cr3437     O3440   1.797       .  S
Cr3438     O3440   1.783       .  S
C3441      C3442   1.397       .  A
C3442      C3443   1.375       .  A
C3442     Br3458   1.908       .  S
C3443      H3447   1.075       .  S
C3444      C3445   1.401       .  A
C3444      C3448   1.484       .  S
C3445      C3446   1.403       .  A
C3445     Br3457   1.907       .  S
C3446      H3449   1.077       .  S
C3448      C3450   1.409       .  A
C3448      C3454   1.415       .  A
C3450      C3451   1.403       .  A
C3450      H3455   1.069       .  S
C3451      C3452   1.375       .  A
C3451     Br3459   1.911   1_554  S
C3452      C3453   1.399       .  A
C3453      C3454   1.398       .  A
C3453      H3456   1.083       .  S
C3454     Br3460   1.914       .  S
C3461      C3462   1.413       .  A
C3461      C3466   1.400       .  A
C3462      C3463   1.394       .  A
C3462     Br3478   1.877       .  S
C3463      C3464   1.393       .  A
C3463      H3467   1.080       .  S
C3464      C3465   1.415       .  A
C3464      C3468   1.469       .  S
C3465      C3466   1.393       .  A
C3465     Br3477   1.899       .  S
C3468      C3470   1.404       .  A
C3468      C3474   1.403       .  A
C3470      C3471   1.391       .  A
C3470      H3475   1.085       .  S
C3471      C3472   1.405       .  A
C3471     Br3479   1.920       .  S
C3472      C3473   1.401       .  A
C3473      C3474   1.392       .  A
C3473      H3476   1.084       .  S
C3474     Br3480   1.908       .  S
C3481      C3482   1.393       .  A
C3481      C3486   1.405       .  A
C3482      C3483   1.398       .  A
C3482     Br3498   1.898       .  S
C3483      C3484   1.410       .  A
C3483      H3487   1.077       .  S
C3484      C3485   1.414       .  A
C3484      C3488   1.495       .  S
C3485      C3486   1.398       .  A
C3485     Br3497   1.920       .  S
C3488      C3490   1.403       .  A
C3488      C3494   1.410       .  A
C3490      C3491   1.406       .  A
C3490      H3495   1.083       .  S
C3491      C3492   1.424       .  A
C3491     Br3499   1.914       .  S
C3492      C3493   1.413       .  A
C3493      C3494   1.393       .  A
C3493      H3496   1.077       .  S
C3494     Br3500   1.920       .  S
C3501      C3502   1.407   1_545  A
C3501      C3506   1.401       .  A
C3502      C3503   1.392       .  A
C3502     Br3518   1.892       .  S
C3503      C3504   1.399   1_565  A
C3503      H3507   1.085       .  S
C3504      C3505   1.420       .  A
C3504      C3508   1.483   1_545  S
C3505      C3506   1.403       .  A
C3506      H3509   1.084       .  S
C3508      C3510   1.416       .  A
C3510      C3511   1.396       .  A
C3510      H3515   1.081       .  S
C3511     Br3519   1.910       .  S
C3512      C3513   1.406       .  A
C3513      C3514   1.395       .  A
C3513      H3516   1.083       .  S
C3514     Br3520   1.913       .  S
C3521      C3522   1.424       .  A
C3521      C3526   1.411       .  A
C3522      C3523   1.384       .  A
C3522     Br3538   1.926       .  S
C3523      C3524   1.390       .  A
C3523      H3527   1.076       .  S
C3524      C3525   1.407       .  A
C3524      C3528   1.484       .  S
C3525      C3526   1.408       .  A
C3525     Br3537   1.917       .  S
C3526      H3529   1.070       .  S
C3528      C3530   1.404       .  A
C3528      C3534   1.425       .  A
C3530      C3531   1.403       .  A
C3530      H3535   1.081       .  S
C3531      C3532   1.406       .  A
C3531     Br3539   1.910       .  S
C3532      C3533   1.388       .  A
C3533      C3534   1.386       .  A
C3533      H3536   1.082       .  S
C3534     Br3540   1.920       .  S
C3541      C3542   1.414       .  A
C3541      C3546   1.402       .  A
C3542      C3543   1.398       .  A
C3542     Br3558   1.892       .  S
C3543      C3544   1.394       .  A
C3543      H3547   1.083       .  S
C3544      C3545   1.403       .  A
C3544      C3548   1.456       .  S
C3545      C3546   1.375       .  A
C3545     Br3557   1.912       .  S
C3546      H3549   1.081       .  S
C3548      C3550   1.396       .  A
C3548      C3554   1.397       .  A
C3550      C3551   1.378       .  A
C3550      H3555   1.085       .  S
C3551      C3552   1.408       .  A
C3552      C3553   1.408       .  A
C3553      C3554   1.400       .  A
C3554     Br3560   1.907       .  S
C3561      C3562   1.405       .  A
C3561      C3566   1.402       .  A
C3562      C3563   1.383       .  A
C3562     Br3578   1.925       .  S
C3563      C3564   1.403       .  A
C3563      H3567   1.079       .  S
C3564      C3565   1.402       .  A
C3564      C3568   1.457       .  S
C3565      C3566   1.399       .  A
C3565     Br3577   1.912       .  S
C3566      H3569   1.082       .  S
C3568      C3570   1.398       .  A
C3568      C3574   1.390       .  A
C3570      C3571   1.398       .  A
C3570      H3575   1.081       .  S
C3571      C3572   1.415       .  A
C3571     Br3579   1.909       .  S
C3572      C3573   1.407       .  A
C3573      C3574   1.402       .  A
C3573      H3576   1.075       .  S
C3574     Br3580   1.912       .  S
C3581      C3582   1.414       .  A
C3581      C3586   1.425       .  A
C3582      C3583   1.388       .  A
C3582     Br3598   1.914       .  S
C3583      C3584   1.407       .  A
C3583      H3587   1.080       .  S
C3584      C3585   1.391       .  A
C3584      C3588   1.479       .  S
C3585      C3586   1.395       .  A
C3585     Br3597   1.913       .  S
C3586      H3589   1.083       .  S
C3588      C3590   1.394       .  A
C3588      C3594   1.406       .  A
C3590      C3591   1.397       .  A
C3590      H3595   1.081       .  S
C3591     Br3599   1.916       .  S
C3592      C3593   1.410       .  A
C3593      H3596   1.081       .  S
C3594     Br3600   1.920       .  S
C3601      C3602   1.400       .  A
C3601      C3606   1.402       .  A
C3603      H3607   1.077       .  S
C3604      C3605   1.414       .  A
C3604      C3608   1.494       .  S
C3605      C3606   1.402       .  A
C3605     Br3617   1.915       .  S
C3606      H3609   1.083       .  S
C3610      C3611   1.405   1_565  A
C3610      H3615   1.080       .  S
C3611      C3612   1.400       .  A
C3612      C3613   1.394   1_545  A
C3613      C3614   1.377       .  A
C3613      H3616   1.070       .  S
C3621      C3622   1.412       .  A
C3621      C3626   1.399       .  A
C3622      C3623   1.394       .  A
C3622     Br3638   1.902       .  S
C3623      C3624   1.394       .  A
C3623      H3627   1.084       .  S
C3624      C3625   1.402       .  A
C3624      C3628   1.464       .  S
C3625      C3626   1.390       .  A
C3625     Br3637   1.891       .  S
C3626      H3629   1.084       .  S
C3628      C3634   1.394       .  A
C3630      C3631   1.398       .  A
C3630      H3635   1.083       .  S
C3631      C3632   1.409   1_455  A
C3631     Br3639   1.908       .  S
C3632      C3633   1.413       .  A
C3633      H3636   1.083       .  S
C3634     Br3640   1.912       .  S
C3641      C3642   1.401       .  A
C3641      C3646   1.408       .  A
C3642      C3643   1.396       .  A
C3642     Br3658   1.908       .  S
C3643      C3644   1.406       .  A
C3643      H3647   1.084       .  S
C3644      C3645   1.399       .  A
C3644      C3648   1.468       .  S
C3645      C3646   1.394       .  A
C3645     Br3657   1.914       .  S
C3646      H3649   1.081       .  S
C3648      C3650   1.405       .  A
C3648      C3654   1.416       .  A
C3650      C3651   1.403       .  A
C3650      H3655   1.083       .  S
C3651      C3652   1.409       .  A
C3651     Br3659   1.910       .  S
C3652      C3653   1.400       .  A
C3653      C3654   1.393       .  A
C3653      H3656   1.075       .  S
C3654     Br3660   1.923       .  S
C3661      C3662   1.404       .  A
C3661      C3666   1.409       .  A
C3662      C3663   1.402       .  A
C3662     Br3678   1.920       .  S
C3663      C3664   1.405       .  A
C3663      H3667   1.073       .  S
C3664      C3665   1.414       .  A
C3664      C3668   1.525       .  S
C3665      C3666   1.409       .  A
C3665     Br3677   1.915       .  S
C3666      H3669   1.083       .  S
C3668      C3670   1.412       .  A
C3668      C3674   1.406       .  A
C3670      C3671   1.403       .  A
C3670      H3675   1.082       .  S
C3671      C3672   1.411       .  A
C3671     Br3679   1.892       .  S
C3672      C3673   1.408       .  A
C3673      C3674   1.393       .  A
C3673      H3676   1.072       .  S
C3674     Br3680   1.899       .  S
