geometry optimzed in LAMMPS
_audit_creation_date              2020-12-01 
_audit_creation_method            'lammps2cif' 
_symmetry_space_group_name_H-M    'P1' 
_symmetry_Int_Tables_number       1 
_symmetry_cell_setting            triclinic 
loop_ 
_symmetry_equiv_pos_as_xyz 
  x,y,z 
_cell_length_a                    37.38051244 
_cell_length_b                    37.38139878859163 
_cell_length_c                    26.941737996509705 
_cell_angle_alpha                 90.06051576085889 
_cell_angle_beta                  90.24348623899363 
_cell_angle_gamma                 90.02048239850535 
loop_ 
_atom_site_label 
_atom_site_type_symbol 
_atom_site_fract_x 
_atom_site_fract_y 
_atom_site_fract_z 
_atom_site_charge 
O1          O  0.32942944  0.02603644  0.07525556    -0.73300
O2          O  0.32810969  0.02355108  0.42549348    -0.74300
O3          O  0.27554468  0.02444694  0.50157183    -0.62900
O4          O  0.38297578  0.02705043  0.00002002    -0.71400
O5          O  0.38324851  0.96766588  0.99791305    -0.70900
O6          O  0.27555809  0.96497850  0.50078284    -0.62200
O7          O  0.32895130  0.96412877  0.42613278    -0.74700
O8          O  0.33112630  0.96663326  0.07446798    -0.73400
Cu9        Cu  0.32911308  0.02675072  0.49980264     1.04600
Cu10       Cu  0.32948557  0.96512847  0.00036966     1.04300
C11         C  0.33004918  0.99614413  0.09825287     0.92900
C12         C  0.32852273  0.99367180  0.40241009     0.92000
C13         C  0.25876434  0.99659198  0.00390115     0.84100
C14         C  0.39979423  0.99541617  0.49866151     0.90400
O15         O  0.32858682  0.02336083  0.32502811    -0.73300
O16         O  0.32757117  0.02490733  0.17663629    -0.74300
O17         O  0.27425880  0.02237408  0.25207059    -0.62900
O18         O  0.38176264  0.02536184  0.25010222    -0.71400
O19         O  0.38312951  0.96595994  0.25019079    -0.70900
O20         O  0.27584042  0.96304741  0.24825512    -0.62200
O21         O  0.33015649  0.96554091  0.17523759    -0.74700
O22         O  0.32899216  0.96393886  0.32426932    -0.73400
Cu23       Cu  0.32796309  0.02606047  0.25100794     1.04600
Cu24       Cu  0.32956654  0.96251739  0.24950960     1.04300
C25         C  0.32867717  0.99355349  0.34805528     0.92900
C26         C  0.32925372  0.99552899  0.15255696     0.92000
C27         C  0.25813617  0.99223366  0.25025234     0.84100
C28         C  0.39933687  0.99604411  0.24962452     0.90400
O29         O  0.88600919  0.58731995  0.42443229    -0.73300
O30         O  0.88491783  0.58674078  0.07411377    -0.74300
O31         O  0.88255494  0.64225662  0.00320088    -0.62900
O32         O  0.88625566  0.53500474  0.99740554    -0.71400
O33         O  0.94563700  0.53678179  0.99891787    -0.70900
O34         O  0.94190637  0.64424551  0.99993241    -0.62200
O35         O  0.94425014  0.59003323  0.07387457    -0.74700
O36         O  0.94545465  0.58773682  0.42506405    -0.73400
Cu37       Cu  0.88239633  0.58857216  0.99977358     1.04600
Cu38       Cu  0.94592300  0.59060784  0.99936080     1.04300
C39         C  0.91576284  0.58717654  0.40141192     0.92900
C40         C  0.91472790  0.58800219  0.09741763     0.92000
C41         C  0.91168929  0.66009102  0.00260462     0.84100
C42         C  0.91643817  0.51898770  0.99833152     0.90400
O43         O  0.88598651  0.58592195  0.32372603    -0.73300
O44         O  0.88536561  0.58544674  0.17513390    -0.74300
O45         O  0.88716178  0.53198500  0.24980616    -0.62900
O46         O  0.88391117  0.63909276  0.24921420    -0.71400
O47         O  0.94330071  0.64113733  0.25232308    -0.70900
O48         O  0.94654955  0.53357062  0.24871207    -0.62200
O49         O  0.94471206  0.58849912  0.17534825    -0.74700
O50         O  0.94543554  0.58652651  0.32403306    -0.73400
Cu51       Cu  0.88355019  0.58550730  0.24943394     1.04600
Cu52       Cu  0.94711711  0.58745942  0.24996080     1.04300
C53         C  0.91574136  0.58645391  0.34721504     0.92900
C54         C  0.91497755  0.58723981  0.15181455     0.92000
C55         C  0.91728021  0.51587684  0.24952672     0.84100
C56         C  0.91299371  0.65693052  0.25162161     0.90400
O57         O  0.45582414  0.02544110  0.49793682    -0.73300
O58         O  0.56345807  0.02579757  0.49727187    -0.74300
O59         O  0.50925187  0.02628581  0.42343523    -0.62900
O60         O  0.51028831  0.02788935  0.07160554    -0.71400
O61         O  0.50904934  0.96847990  0.07232321    -0.70900
O62         O  0.51023913  0.96686843  0.42291259    -0.62200
O63         O  0.56362126  0.96772308  0.00030215    -0.74700
O64         O  0.45626852  0.96795069  0.99671637    -0.73400
Cu65       Cu  0.50959144  0.02778961  0.49765084     1.04600
Cu66       Cu  0.50996412  0.96581185  0.99814632     1.04300
C67         C  0.43902217  0.99565223  0.49757670     0.92900
C68         C  0.58067801  0.99731757  0.99912541     0.92000
C69         C  0.50969710  0.99670659  0.39976472     0.84100
C70         C  0.50949420  0.99833539  0.09538066     0.90400
O71         O  0.50985562  0.96875087  0.17310548    -0.73300
O72         O  0.50936296  0.96749886  0.32169504    -0.74300
O73         O  0.45591730  0.96739039  0.24711405    -0.62900
O74         O  0.56315274  0.96902592  0.24877048    -0.71400
O75         O  0.56250381  0.02847064  0.24704761    -0.70900
O76         O  0.45499324  0.02679286  0.24851995    -0.62200
O77         O  0.50938841  0.02692922  0.32231233    -0.74700
O78         O  0.50826152  0.02815311  0.17326716    -0.73400
Cu79       Cu  0.50958960  0.96611120  0.24749345     1.04600
Cu80       Cu  0.50873172  0.02970066  0.24777234     1.04300
C81         C  0.50916240  0.99847648  0.14976518     0.92900
C82         C  0.50949289  0.99706738  0.34540767     0.92000
C83         C  0.43856172  0.99681046  0.24833390     0.84100
C84         C  0.57964643  0.99894101  0.24849072     0.90400
O85         O  0.92188579  0.05236168  0.47583467    -0.73300
O86         O  0.91755345  0.94500524  0.47168845    -0.74300
O87         O  0.86609691  0.00068303  0.47333436    -0.62900
O88         O  0.97313621  0.99688222  0.47369300    -0.71400
O89         O  0.97281099  0.99765807  0.06033181    -0.70900
O90         O  0.86554135  0.00047979  0.05538433    -0.62200
O91         O  0.91721850  0.94557669  0.05785620    -0.74700
O92         O  0.92055733  0.05312818  0.05748015    -0.73400
Cu93       Cu  0.91963655  0.99880143  0.47078758     1.04600
Cu94       Cu  0.91900405  0.99925261  0.06063814     1.04300
C95         C  0.92164729  0.07012645  0.01630847     0.92900
C96         C  0.91779557  0.92871031  0.01658170     0.92000
C97         C  0.84923622  0.00070728  0.01360514     0.84100
C98         C  0.99045877  0.99834401  0.01982519     0.90400
O99         O  0.92066857  0.04944073  0.29923006    -0.73300
O100        O  0.91857207  0.94218227  0.29950940    -0.74300
O101        O  0.97342675  0.99510010  0.29758781    -0.62900
O102        O  0.86577080  0.99669075  0.30008915    -0.71400
O103        O  0.86498642  0.00009304  0.21791645    -0.70900
O104        O  0.97172768  0.99178789  0.21533005    -0.62200
O105        O  0.91410740  0.94251834  0.21738909    -0.74700
O106        O  0.92281994  0.04983394  0.21696011    -0.73400
Cu107      Cu  0.91966371  0.99587391  0.30200346     1.04600
Cu108      Cu  0.91836852  0.99606955  0.21403454     1.04300
C109        C  0.92269282  0.06661881  0.25835859     0.92900
C110        C  0.91531449  0.92537168  0.25843599     0.92000
C111        C  0.98948641  0.99279094  0.25588655     0.84100
C112        C  0.84836410  0.99883677  0.25920784     0.90400
O113        O  0.88814348  0.46214271  0.99972480    -0.73300
O114        O  0.89042768  0.35485489  0.00234657    -0.74300
O115        O  0.88988871  0.40884071  0.07505211    -0.62900
O116        O  0.88761935  0.40525697  0.42562326    -0.71400
O117        O  0.94699789  0.40713138  0.42695529    -0.70900
O118        O  0.94931526  0.40939817  0.07455646    -0.62200
O119        O  0.94985244  0.35603234  0.99979629    -0.74700
O120        O  0.94754306  0.46351630  0.99984926    -0.73400
Cu121      Cu  0.88717753  0.40842171  0.00090681     1.04600
Cu122      Cu  0.95076193  0.40977875  0.99991767     1.04300
C123        C  0.91745401  0.47973322  0.99924296     0.92900
C124        C  0.92048707  0.33865000  0.00189258     0.92000
C125        C  0.91975527  0.40860580  0.09820104     0.84100
C126        C  0.91756077  0.40593128  0.40282562     0.90400
O127        O  0.94806330  0.40575871  0.32545062    -0.73300
O128        O  0.94955240  0.40761720  0.17621728    -0.74300
O129        O  0.94809109  0.46028365  0.25154376    -0.62900
O130        O  0.94994860  0.35275060  0.24909407    -0.71400
O131        O  0.89054656  0.35168547  0.25076794    -0.70900
O132        O  0.88869570  0.45916707  0.24959951    -0.62200
O133        O  0.89015933  0.40558632  0.17563825    -0.74700
O134        O  0.88865434  0.40563092  0.32429155    -0.73400
Cu135      Cu  0.95101099  0.40658927  0.25067739     1.04600
Cu136      Cu  0.88745183  0.40543500  0.24996390     1.04300
C137        C  0.91814453  0.40566598  0.34833752     0.92900
C138        C  0.91988711  0.40721339  0.15253152     0.92000
C139        C  0.91809508  0.47662849  0.25025925     0.84100
C140        C  0.92056300  0.33532663  0.25019924     0.90400
C141        C  0.92442658  0.10615113  0.25936949    -0.01700
C142        C  0.91094386  0.12488436  0.30024875    -0.09700
C143        C  0.91076209  0.16219321  0.30103149    -0.18500
C144        C  0.92453836  0.18214052  0.26085037     0.03800
C145        C  0.94035303  0.16304381  0.22088832     0.18000
C146        C  0.93953004  0.12540286  0.21999438    -0.20000
C147        C  0.95676353  0.18165261  0.18206084    -0.21200
C148        C  0.95727117  0.21889276  0.18163468    -0.19800
C149        C  0.94039159  0.23844168  0.21921592     0.19400
C150        C  0.92323890  0.22031173  0.25896950     0.01500
C151        C  0.90456335  0.24112891  0.29429707    -0.14500
C152        C  0.90328643  0.27833282  0.29046384    -0.12200
C153        C  0.92128146  0.29601141  0.25234637     0.01100
C154        C  0.94002891  0.27605537  0.21695713    -0.24400
H155        H  0.89975462  0.11061447  0.33154745     0.09100
H156        H  0.90002006  0.17461690  0.33383267     0.12600
H157        H  0.95090374  0.11107660  0.18881072     0.11400
H158        H  0.96932290  0.16730653  0.15181300     0.12600
H159        H  0.97023050  0.23248613  0.15107830     0.11600
H160        H  0.88995478  0.22944244  0.32459532     0.08700
H161        H  0.88861225  0.29348357  0.31800193     0.11900
H162        H  0.95353366  0.28982025  0.18698010     0.13800
C163        C  0.92255570  0.10973530  0.01603735    -0.01700
C164        C  0.90947623  0.12703265  0.55988657    -0.09700
C165        C  0.90897450  0.16439317  0.56003468    -0.18500
C166        C  0.92223354  0.18412137  0.51925760     0.03800
C167        C  0.93736075  0.16476782  0.47902739     0.18000
C168        C  0.93676083  0.12722621  0.47877293    -0.20000
C169        C  0.95279342  0.18296454  0.43910011    -0.21200
C170        C  0.95333008  0.22012392  0.43803312    -0.19800
C171        C  0.93728972  0.23996002  0.47597223     0.19400
C172        C  0.92094491  0.22227131  0.51678483     0.01500
C173        C  0.90304994  0.24351226  0.55242678    -0.14500
C174        C  0.90146704  0.28066976  0.54753795    -0.12200
C175        C  0.92124981  0.29956431  0.00528865     0.01100
C176        C  0.93678402  0.27744921  0.47277141    -0.24400
H177        H  0.89885314  0.11285946  0.59164313     0.09100
H178        H  0.89829828  0.17704529  0.59271374     0.12600
H179        H  0.94768065  0.11278620  0.44736329     0.11400
H180        H  0.96460193  0.16835083  0.40850311     0.12600
H181        H  0.96558382  0.23343025  0.40667537     0.11600
H182        H  0.88928889  0.23217640  0.58375225     0.08700
H183        H  0.88731517  0.29621154  0.57517936     0.11900
H184        H  0.94967679  0.29084388  0.44194845     0.13800
C185        C  0.61880587  0.99923444  0.25127171    -0.01700
C186        C  0.63588180  0.98606647  0.29365185    -0.09700
C187        C  0.67312286  0.98594434  0.29711908    -0.18500
C188        C  0.69448167  0.99849212  0.25751269     0.03800
C189        C  0.67675106  0.01129706  0.21413301     0.18000
C190        C  0.63918752  0.01205476  0.21172514    -0.20000
C191        C  0.69659900  0.02303655  0.17334611    -0.21200
C192        C  0.73376920  0.02249536  0.17468472    -0.19800
C193        C  0.75202804  0.01049554  0.21697489     0.19400
C194        C  0.73270407  0.99856314  0.25919641     0.01500
C195        C  0.75253688  0.98739546  0.30127658    -0.14500
C196        C  0.78987972  0.98808517  0.30136772    -0.12200
C197        C  0.80877107  0.99936432  0.25943119     0.01100
C198        C  0.78960660  0.01043938  0.21729083    -0.24400
H199        H  0.62025158  0.97610843  0.32449187     0.09100
H200        H  0.68429905  0.97550462  0.33104400     0.12600
H201        H  0.62574519  0.02193504  0.17871272     0.11400
H202        H  0.68328313  0.03256670  0.14007522     0.12600
H203        H  0.74836276  0.03174299  0.14247121     0.11600
H204        H  0.74005090  0.97814863  0.33485239     0.08700
H205        H  0.80403312  0.97924521  0.33431317     0.11900
H206        H  0.80397469  0.01935791  0.18466894     0.13800
C207        C  0.61994710  0.99701642  0.00160968    -0.01700
C208        C  0.63720202  0.97897087  0.04025779    -0.09700
C209        C  0.67444100  0.97919526  0.04404683    -0.18500
C210        C  0.69564812  0.99688277  0.00823560     0.03800
C211        C  0.67786267  0.01382907  0.96781130     0.18000
C212        C  0.64028566  0.01449204  0.96552705    -0.20000
C213        C  0.69768187  0.02969393  0.92974010    -0.21200
C214        C  0.73488668  0.02913193  0.93091676    -0.19800
C215        C  0.75317928  0.01370451  0.97098145     0.19400
C216        C  0.73380999  0.99794478  0.01070220     0.01500
C217        C  0.75347947  0.98437087  0.05147792    -0.14500
C218        C  0.79074459  0.98595139  0.05241717    -0.12200
C219        C  0.80973467  0.00036256  0.01248486     0.01100
C220        C  0.79079353  0.01415316  0.97177344    -0.24400
H221        H  0.62065835  0.96871342  0.57251342     0.09100
H222        H  0.68578809  0.96479817  0.07493589     0.12600
H223        H  0.62679838  0.02791791  0.93508040     0.11400
H224        H  0.68431314  0.04225850  0.89852776     0.12600
H225        H  0.74945408  0.04125620  0.90056521     0.11600
H226        H  0.74087385  0.97291176  0.08362842     0.08700
H227        H  0.80434887  0.97478968  0.58649218     0.11900
H228        H  0.80534303  0.02583312  0.94104654     0.13800
C229        C  0.91139150  0.69611241  0.25319451    -0.01700
C230        C  0.89410129  0.71461366  0.21508666    -0.09700
C231        C  0.89294362  0.75188385  0.21527351    -0.18500
C232        C  0.90864297  0.77180621  0.25442580     0.03800
C233        C  0.92454344  0.75263680  0.29442371     0.18000
C234        C  0.92636204  0.71507471  0.29301824    -0.20000
C235        C  0.93861068  0.77109131  0.33533986    -0.21200
C236        C  0.93779610  0.80829845  0.33701228    -0.19800
C237        C  0.92367504  0.82797504  0.29729946     0.19400
C238        C  0.90919994  0.80999349  0.25521630     0.01500
C239        C  0.89681708  0.83101252  0.21508177    -0.14500
C240        C  0.89892135  0.86821278  0.21652352    -0.12200
C241        C  0.91280744  0.88588012  0.25816503     0.01100
C242        C  0.92468121  0.86558590  0.29883330    -0.24400
H243        H  0.88196337  0.70012734  0.18447770     0.09100
H244        H  0.87926051  0.76421819  0.18448579     0.12600
H245        H  0.93898927  0.70050891  0.32316346     0.11400
H246        H  0.95026109  0.75665735  0.36631138     0.12600
H247        H  0.94888143  0.82179104  0.36922482     0.11600
H248        H  0.88611995  0.81955556  0.18149395     0.08700
H249        H  0.88946282  0.88326495  0.18474451     0.11900
H250        H  0.93571316  0.87902896  0.33114136     0.13800
C251        C  0.91054183  0.69931865  0.00523152    -0.01700
C252        C  0.89279896  0.71645200  0.04417552    -0.09700
C253        C  0.89310737  0.75376356  0.04801672    -0.18500
C254        C  0.91055441  0.77503369  0.01199410     0.03800
C255        C  0.89916579  0.75628439  0.46987372     0.18000
C256        C  0.89783542  0.71869345  0.46768761    -0.20000
C257        C  0.88071262  0.77645871  0.43429525    -0.21200
C258        C  0.88222746  0.81364750  0.43505688    -0.19800
C259        C  0.90122749  0.83161186  0.47240742     0.19400
C260        C  0.91209891  0.81321873  0.01449029     0.01500
C261        C  0.89940680  0.83308839  0.05553105    -0.14500
C262        C  0.90172862  0.87041771  0.05636574    -0.12200
C263        C  0.91611203  0.88917505  0.01610783     0.01100
C264        C  0.90193992  0.86921777  0.47268951    -0.24400
H265        H  0.87932642  0.70085125  0.07236207     0.09100
H266        H  0.87909077  0.76517822  0.07912178     0.12600
H267        H  0.88202935  0.70548878  0.43920699     0.11400
H268        H  0.86554841  0.76337424  0.40508661     0.12600
H269        H  0.86821872  0.82847004  0.40640488     0.11600
H270        H  0.88812501  0.82051360  0.08784193     0.08700
H271        H  0.89176321  0.88470859  0.08844841     0.11900
H272        H  0.88853115  0.88399307  0.44341203     0.13800
C273        C  0.21874998  0.99112942  0.25047562    -0.01700
C274        C  0.20033121  0.96687141  0.22016328    -0.09700
C275        C  0.16296762  0.96633753  0.21920839    -0.18500
C276        C  0.14286760  0.98961254  0.24976038     0.03800
C277        C  0.16187614  0.01299777  0.28215479     0.18000
C278        C  0.19941756  0.01413975  0.28135720    -0.20000
C279        C  0.14333604  0.03482928  0.31551524    -0.21200
C280        C  0.10622464  0.03365578  0.31787064    -0.19800
C281        C  0.08669268  0.01164378  0.28562486     0.19400
C282        C  0.10466291  0.99009950  0.25003067     0.01500
C283        C  0.08357764  0.97053181  0.21573822    -0.14500
C284        C  0.04627248  0.97172351  0.21758822    -0.12200
C285        C  0.02885690  0.99162162  0.25428591     0.01100
C286        C  0.04919142  0.01142955  0.28830215    -0.24400
H287        H  0.21493102  0.94865839  0.19638267     0.09100
H288        H  0.15060226  0.94694771  0.19496832     0.12600
H289        H  0.21371408  0.03239549  0.30568139     0.11400
H290        H  0.15767554  0.05243548  0.34064576     0.12600
H291        H  0.09267929  0.05035919  0.34479891     0.11600
H292        H  0.09511795  0.95474932  0.18638490     0.08700
H293        H  0.03093342  0.95664226  0.19051236     0.11900
H294        H  0.03572402  0.02758318  0.31598686     0.13800
C295        C  0.02990987  0.99888690  0.02102446    -0.01700
C296        C  0.04893322  0.98169759  0.05899380    -0.09700
C297        C  0.08634558  0.98109717  0.05870688    -0.18500
C298        C  0.10592479  0.99684559  0.51385645     0.03800
C299        C  0.08606680  0.98942894  0.46989687     0.18000
C300        C  0.04853137  0.99003717  0.47046987    -0.20000
C301        C  0.10373700  0.98114969  0.42565159    -0.21200
C302        C  0.14086167  0.97994487  0.42402459    -0.19800
C303        C  0.16123860  0.98749113  0.46643675     0.19400
C304        C  0.14411280  0.99641425  0.51193131     0.01500
C305        C  0.16547727  0.97560678  0.04853062    -0.14500
C306        C  0.20264507  0.97484921  0.04316575    -0.12200
C307        C  0.21953373  0.99662294  0.00814109     0.01100
C308        C  0.19874171  0.98636448  0.46360244    -0.24400
H309        H  0.03481464  0.96802101  0.08844256     0.09100
H310        H  0.09928863  0.96731315  0.08898918     0.12600
H311        H  0.03379208  0.98444291  0.43657826     0.11400
H312        H  0.08871300  0.97528815  0.39211508     0.12600
H313        H  0.15373422  0.97322437  0.38926291     0.11600
H314        H  0.15426509  0.95809270  0.07618227     0.08700
H315        H  0.21835998  0.95761531  0.06711138     0.11900
H316        H  0.21172944  0.97946721  0.42894987     0.13800
O317        O  0.33009603  0.02572123  0.57418020    -0.73300
O318        O  0.32873691  0.02695625  0.92616195    -0.74300
O319        O  0.27549133  0.02632543  0.00115510    -0.62900
O320        O  0.38275374  0.02502101  0.49845018    -0.71400
O321        O  0.38305390  0.96561338  0.49997014    -0.70900
O322        O  0.27576253  0.96693476  0.00373647    -0.62200
O323        O  0.32766294  0.96755000  0.92593229    -0.74700
O324        O  0.32966060  0.96629857  0.57501615    -0.73400
Cu325      Cu  0.32916945  0.02868630  0.00065249     1.04600
Cu326      Cu  0.32932262  0.96315014  0.50054936     1.04300
C327        C  0.32985685  0.99622075  0.59801445     0.92900
C328        C  0.32810470  0.99728219  0.90260386     0.92000
C329        C  0.25875715  0.99470865  0.50194190     0.84100
C330        C  0.40003875  0.99746581  0.99832860     0.90400
O331        O  0.32903657  0.02698118  0.82475429    -0.73300
O332        O  0.32909690  0.02642903  0.67565402    -0.74300
O333        O  0.27527086  0.02709261  0.75012182    -0.62900
O334        O  0.38285042  0.02642297  0.75028375    -0.71400
O335        O  0.38252322  0.96702292  0.75143911    -0.70900
O336        O  0.27507467  0.96772101  0.74792606    -0.62200
O337        O  0.32971207  0.96700977  0.67595776    -0.74700
O338        O  0.32780050  0.96758107  0.82468021    -0.73400
Cu339      Cu  0.32907866  0.02882531  0.75026296     1.04600
Cu340      Cu  0.32875907  0.96527342  0.75015791     1.04300
C341        C  0.32823405  0.99729440  0.84816266     0.92900
C342        C  0.32959329  0.99661286  0.65239078     0.92000
C343        C  0.25823528  0.99747429  0.74808210     0.84100
C344        C  0.39960726  0.99662917  0.75052334     0.90400
O345        O  0.88420908  0.59056388  0.92491370    -0.73300
O346        O  0.88603889  0.58911506  0.57288512    -0.74300
O347        O  0.88681795  0.64223714  0.49698553    -0.62900
O348        O  0.88538034  0.53442386  0.49937060    -0.71400
O349        O  0.94479278  0.53403085  0.49890842    -0.70900
O350        O  0.94619004  0.64125173  0.50045961    -0.62200
O351        O  0.94544306  0.58737118  0.57374003    -0.74700
O352        O  0.94361106  0.59102874  0.92498096    -0.73400
Cu353      Cu  0.88396006  0.58832408  0.49842618     1.04600
Cu354      Cu  0.94753779  0.58758626  0.49948142     1.04300
C355        C  0.91388003  0.59111925  0.90145846     0.92900
C356        C  0.91565898  0.58834451  0.59671208     0.92000
C357        C  0.91679947  0.65865064  0.49903682     0.84100
C358        C  0.91498437  0.51731688  0.49905622     0.90400
O359        O  0.88453315  0.59186519  0.82284132    -0.73300
O360        O  0.88558033  0.58863544  0.67390039    -0.74300
O361        O  0.88489313  0.53641023  0.75029730    -0.62900
O362        O  0.88565055  0.64403435  0.74494993    -0.71400
O363        O  0.94500591  0.64367421  0.74853080    -0.70900
O364        O  0.94430323  0.53639872  0.75041410    -0.62200
O365        O  0.94500339  0.58927677  0.67501880    -0.74700
O366        O  0.94392248  0.59072644  0.82401711    -0.73400
Cu367      Cu  0.88306947  0.59026842  0.74808532     1.04600
Cu368      Cu  0.94661846  0.59001664  0.74959806     1.04300
C369        C  0.91406246  0.59139297  0.84691632     0.92900
C370        C  0.91542830  0.58872064  0.65105607     0.92000
C371        C  0.91460936  0.51948665  0.75057288     0.84100
C372        C  0.91549836  0.66075556  0.74534842     0.90400
O373        O  0.45628390  0.02735527  0.99720006    -0.73300
O374        O  0.56399693  0.02710033  0.99670543    -0.74300
O375        O  0.51004144  0.02674381  0.92265752    -0.62900
O376        O  0.50979045  0.02529569  0.57201337    -0.71400
O377        O  0.50891034  0.96587112  0.57187554    -0.70900
O378        O  0.51091099  0.96733262  0.92358977    -0.62200
O379        O  0.56329704  0.96637388  0.49936567    -0.74700
O380        O  0.45601051  0.96602907  0.49655755    -0.73400
Cu381      Cu  0.51016458  0.02937595  0.99697084     1.04600
Cu382      Cu  0.50964379  0.96420177  0.49751100     1.04300
C383        C  0.43934581  0.99763255  0.99722285     0.92900
C384        C  0.58023522  0.99604495  0.49900445     0.92000
C385        C  0.51059937  0.99684796  0.89970461     0.84100
C386        C  0.50914314  0.99556825  0.59534471     0.90400
O387        O  0.50907154  0.96603486  0.67334967    -0.73300
O388        O  0.50981126  0.96659358  0.82228259    -0.74300
O389        O  0.45561674  0.96660275  0.74845652    -0.62900
O390        O  0.56305489  0.96602979  0.74801126    -0.71400
O391        O  0.56343565  0.02543755  0.74491500    -0.70900
O392        O  0.45598835  0.02601058  0.74888893    -0.62200
O393        O  0.51108250  0.02600411  0.82153252    -0.74700
O394        O  0.50849832  0.02545856  0.67285624    -0.73400
Cu395      Cu  0.50936320  0.96422466  0.74796559     1.04600
Cu396      Cu  0.50974950  0.02780532  0.74705017     1.04300
C397        C  0.50882222  0.99565133  0.64969557     0.92900
C398        C  0.51058932  0.99645437  0.84532265     0.92000
C399        C  0.43888867  0.99640408  0.74931617     0.84100
C400        C  0.58008418  0.99562023  0.74614266     0.90400
O401        O  0.92178685  0.05307830  0.97520070    -0.73300
O402        O  0.91968575  0.94582459  0.97559920    -0.74300
O403        O  0.86686750  0.00069059  0.97304836    -0.62900
O404        O  0.97421795  0.99900507  0.97799527    -0.71400
O405        O  0.97350422  0.99810330  0.55599156    -0.70900
O406        O  0.86593775  0.99650702  0.55545404    -0.62200
O407        O  0.92060675  0.94374442  0.55394635    -0.74700
O408        O  0.91920948  0.05102050  0.55806062    -0.73400
Cu409      Cu  0.92070168  0.99958732  0.97260704     1.04600
Cu410      Cu  0.91977708  0.99730029  0.55876369     1.04300
C411        C  0.92112475  0.06866326  0.51755677     0.92900
C412        C  0.91895951  0.92740404  0.51230958     0.92000
C413        C  0.84900846  0.99855761  0.51418540     0.84100
C414        C  0.99032972  0.99740600  0.51477136     0.90400
O415        O  0.91790682  0.05175095  0.78002677    -0.73300
O416        O  0.92344528  0.94492841  0.77236045    -0.74300
O417        O  0.97405720  0.00142924  0.77360510    -0.62900
O418        O  0.86705962  0.99543951  0.77843091    -0.71400
O419        O  0.86454563  0.00193341  0.69666913    -0.70900
O420        O  0.97197531  0.99982175  0.69123515    -0.62200
O421        O  0.91694968  0.94723809  0.69048285    -0.74700
O422        O  0.91957049  0.05488906  0.69783561    -0.73400
Cu423      Cu  0.92067841  0.99828205  0.77893656     1.04600
Cu424      Cu  0.91816563  0.00110570  0.69110277     1.04300
C425        C  0.91870646  0.07028887  0.74025630     0.92900
C426        C  0.92043615  0.92915372  0.73046002     0.92000
C427        C  0.98990411  0.00094666  0.73169958     0.84100
C428        C  0.84880970  0.99821242  0.73838776     0.90400
O429        O  0.88552979  0.46080458  0.49815730    -0.73300
O430        O  0.88754202  0.35322001  0.50359376    -0.74300
O431        O  0.88537674  0.40863954  0.57475033    -0.62900
O432        O  0.88849309  0.40790972  0.92662560    -0.71400
O433        O  0.94789474  0.40985500  0.92560795    -0.70900
O434        O  0.94480393  0.40864366  0.57565634    -0.62200
O435        O  0.94696689  0.35430340  0.50222816    -0.74700
O436        O  0.94492499  0.46147582  0.50039141    -0.73400
Cu437      Cu  0.88439012  0.40692930  0.50030529     1.04600
Cu438      Cu  0.94795815  0.40793353  0.50133992     1.04300
C439        C  0.91505991  0.47804937  0.49911881     0.92900
C440        C  0.91759967  0.33693718  0.50419960     0.92000
C441        C  0.91496029  0.40889631  0.59861574     0.84100
C442        C  0.91790174  0.40900875  0.90274627     0.90400
O443        O  0.94655523  0.40940295  0.82448872    -0.73300
O444        O  0.94480279  0.41032682  0.67611039    -0.74300
O445        O  0.94474181  0.46361778  0.75092987    -0.62900
O446        O  0.94635476  0.35623561  0.74916983    -0.71400
O447        O  0.88699335  0.35540443  0.75293567    -0.70900
O448        O  0.88533277  0.46295119  0.75059892    -0.62200
O449        O  0.88540884  0.40845143  0.67669635    -0.74700
O450        O  0.88712756  0.40970387  0.82570983    -0.73400
Cu451      Cu  0.94766277  0.40995197  0.75015402     1.04600
Cu452      Cu  0.88409602  0.40911317  0.75146130     1.04300
C453        C  0.91716684  0.40938619  0.84847008     0.92900
C454        C  0.91495567  0.40929851  0.65298889     0.92000
C455        C  0.91485204  0.48020248  0.75078461     0.84100
C456        C  0.91692196  0.33895223  0.75134219     0.90400
C457        C  0.91877830  0.10975780  0.74370353    -0.01700
C458        C  0.90455220  0.12677865  0.78554697    -0.09700
C459        C  0.90414171  0.16403583  0.78913706    -0.18500
C460        C  0.91864515  0.18558990  0.75109091     0.03800
C461        C  0.93461879  0.16809437  0.70982931     0.18000
C462        C  0.93385660  0.13060084  0.70599749    -0.20000
C463        C  0.95143155  0.18810332  0.67276275    -0.21200
C464        C  0.95235924  0.22522255  0.67537897    -0.19800
C465        C  0.93569181  0.24329525  0.71446908     0.19400
C466        C  0.91806842  0.22380337  0.75255818     0.01500
C467        C  0.89987440  0.24346036  0.78965525    -0.14500
C468        C  0.89926399  0.28082444  0.78877141    -0.12200
C469        C  0.91752000  0.29965689  0.75193379     0.01100
C470        C  0.93600074  0.28085632  0.71521702    -0.24400
H471        H  0.89321104  0.11119425  0.81549796     0.09100
H472        H  0.89277195  0.17513415  0.82245207     0.12600
H473        H  0.94567172  0.11757498  0.67403191     0.11400
H474        H  0.96408114  0.17493670  0.64157082     0.12600
H475        H  0.96562133  0.23992898  0.64608464     0.11600
H476        H  0.88517045  0.23076821  0.81910073     0.08700
H477        H  0.88480545  0.29512726  0.81737023     0.11900
H478        H  0.94970568  0.29557615  0.68628783     0.13800
C479        C  0.92247469  0.10815858  0.51882707    -0.01700
C480        C  0.91595063  0.12909776  0.05957412    -0.09700
C481        C  0.91565636  0.16643322  0.05921659    -0.18500
C482        C  0.92243001  0.18581027  0.01515577     0.03800
C483        C  0.92995482  0.16603106  0.97130466     0.18000
C484        C  0.92969119  0.12846466  0.97206132    -0.20000
C485        C  0.93759352  0.18383144  0.92688877    -0.21200
C486        C  0.93789338  0.22098078  0.92495396    -0.19800
C487        C  0.93013711  0.24125884  0.96724582     0.19400
C488        C  0.92199111  0.22400189  0.01294905     0.01500
C489        C  0.91335781  0.24578937  0.05421370    -0.14500
C490        C  0.91274666  0.28298205  0.05012383    -0.12200
C491        C  0.91852195  0.29778300  0.50808403     0.01100
C492        C  0.93015571  0.27877425  0.96404713    -0.24400
H493        H  0.91050190  0.11533990  0.09409025     0.09100
H494        H  0.91004378  0.17930325  0.09412258     0.12600
H495        H  0.93517666  0.11377581  0.93819202     0.11400
H496        H  0.94347302  0.16889477  0.89339257     0.12600
H497        H  0.94396587  0.23394781  0.89001067     0.11600
H498        H  0.90653697  0.23497292  0.09001586     0.08700
H499        H  0.90584714  0.29895930  0.08227813     0.11900
H500        H  0.93648748  0.29186614  0.92923950     0.13800
C501        C  0.61932126  0.99531186  0.74592312    -0.01700
C502        C  0.63801791  0.97971082  0.78529208    -0.09700
C503        C  0.67535262  0.97965151  0.78599407    -0.18500
C504        C  0.69513440  0.99466787  0.74643765     0.03800
C505        C  0.67574878  0.00973550  0.70595101     0.18000
C506        C  0.63817129  0.01040866  0.70642810    -0.20000
C507        C  0.69395980  0.02403723  0.66527413    -0.21200
C508        C  0.73111201  0.02376624  0.66384602    -0.19800
C509        C  0.75100387  0.00942264  0.70317821     0.19400
C510        C  0.73335688  0.99511322  0.74541501     0.01500
C511        C  0.75478295  0.98230406  0.78498763    -0.14500
C512        C  0.79204862  0.98351130  0.78252208    -0.12200
C513        C  0.80928375  0.99704112  0.74046762     0.01100
C514        C  0.78854143  0.00974483  0.70076549    -0.24400
H515        H  0.62361377  0.96795124  0.81605864     0.09100
H516        H  0.68785834  0.96733365  0.81774455     0.12600
H517        H  0.62349320  0.02213553  0.67566904     0.11400
H518        H  0.67936202  0.03544518  0.63425801     0.12600
H519        H  0.74440559  0.03515906  0.63187689     0.11600
H520        H  0.74362754  0.97163828  0.81867036     0.08700
H521        H  0.80746269  0.97355300  0.81371856     0.11900
H522        H  0.80163581  0.02058435  0.66823157     0.13800
C523        C  0.61947417  0.99580463  0.50193339    -0.01700
C524        C  0.63640487  0.98033012  0.54291882    -0.09700
C525        C  0.67365282  0.98018601  0.54682516    -0.18500
C526        C  0.69519056  0.99504191  0.50897123     0.03800
C527        C  0.67766105  0.00985235  0.46670690     0.18000
C528        C  0.64008813  0.01065390  0.46397272    -0.20000
C529        C  0.69770862  0.02362567  0.42735178    -0.21200
C530        C  0.73488084  0.02330527  0.42914882    -0.19800
C531        C  0.75293395  0.00972645  0.47067402     0.19400
C532        C  0.73341296  0.99559215  0.51137067     0.01500
C533        C  0.75303572  0.98291158  0.55281101    -0.14500
C534        C  0.79035092  0.98463475  0.55395678    -0.12200
C535        C  0.80943386  0.99805885  0.51346056     0.01100
C536        C  0.79051073  0.01037134  0.47178251    -0.24400
H537        H  0.62171470  0.96514606  0.06823480     0.09100
H538        H  0.68468524  0.96798685  0.57964200     0.12600
H539        H  0.62682737  0.02222294  0.43191573     0.11400
H540        H  0.68455238  0.03462089  0.39485312     0.12600
H541        H  0.74962014  0.03409755  0.39800979     0.11600
H542        H  0.74040462  0.97180752  0.58511446     0.08700
H543        H  0.80481484  0.97528477  0.08438179     0.11900
H544        H  0.80504814  0.02094990  0.44030336     0.13800
C545        C  0.91600539  0.70007196  0.74129451    -0.01700
C546        C  0.89164535  0.71761818  0.71016462    -0.09700
C547        C  0.89256884  0.75479719  0.70501104    -0.18500
C548        C  0.91749032  0.77570225  0.73205152     0.03800
C549        C  0.94146671  0.75768505  0.76468190     0.18000
C550        C  0.94111057  0.72019831  0.76803084    -0.20000
C551        C  0.96526909  0.77720420  0.79438713    -0.21200
C552        C  0.96495143  0.81436290  0.79374221    -0.19800
C553        C  0.94195116  0.83287915  0.76173693     0.19400
C554        C  0.91887286  0.81383905  0.72897086     0.01500
C555        C  0.89843696  0.83384501  0.69443397    -0.14500
C556        C  0.89979040  0.87121973  0.69404464    -0.12200
C557        C  0.92084152  0.88973645  0.72862380     0.01100
C558        C  0.94202949  0.87041594  0.76213448    -0.24400
H559        H  0.87210865  0.70241883  0.68909225     0.09100
H560        H  0.87289286  0.76647447  0.68057232     0.12600
H561        H  0.95975057  0.70666422  0.79260198     0.11400
H562        H  0.98374956  0.76364086  0.81908829     0.12600
H563        H  0.98311856  0.82873016  0.81807785     0.11600
H564        H  0.88157688  0.82135214  0.66686264     0.08700
H565        H  0.88360959  0.88573760  0.66737727     0.11900
H566        H  0.95903733  0.88470189  0.78818209     0.13800
C567        C  0.91766780  0.69799527  0.50121150    -0.01700
C568        C  0.93871729  0.71498241  0.53718131    -0.09700
C569        C  0.93932374  0.75220776  0.54089859    -0.18500
C570        C  0.91938398  0.77374249  0.50767180     0.03800
C571        C  0.92696739  0.75725161  0.97128892     0.18000
C572        C  0.92755236  0.71975423  0.96894825    -0.20000
C573        C  0.94260175  0.77695837  0.93301298    -0.21200
C574        C  0.94241027  0.81409301  0.93416117    -0.19800
C575        C  0.92768090  0.83242530  0.97447972     0.19400
C576        C  0.91926357  0.81192659  0.51008270     0.01500
C577        C  0.93590312  0.83132863  0.54895276    -0.14500
C578        C  0.93533703  0.86865195  0.54965761    -0.12200
C579        C  0.91886870  0.88790090  0.51133611     0.01100
C580        C  0.92890141  0.86995202  0.97522154    -0.24400
H581        H  0.95435654  0.69928660  0.56318304     0.09100
H582        H  0.95620458  0.76331433  0.56953988     0.12600
H583        H  0.94075462  0.70635168  0.93833784     0.11400
H584        H  0.95482241  0.76350397  0.90177887     0.12600
H585        H  0.95445242  0.82860175  0.90372308     0.11600
H586        H  0.94891447  0.81845727  0.57990571     0.08700
H587        H  0.94826643  0.88255621  0.58015452     0.11900
H588        H  0.94055149  0.88423251  0.94421509     0.13800
C589        C  0.21883551  0.99757223  0.74476703    -0.01700
C590        C  0.20118906  0.97171635  0.71613835    -0.09700
C591        C  0.16400978  0.97220889  0.71106124    -0.18500
C592        C  0.14315058  0.99824839  0.73570658     0.03800
C593        C  0.16116495  0.02350312  0.76646974     0.18000
C594        C  0.19870784  0.02353660  0.76965844    -0.20000
C595        C  0.14158219  0.04817825  0.79446562    -0.21200
C596        C  0.10439456  0.04784328  0.79338525    -0.19800
C597        C  0.08593079  0.02383595  0.76268140     0.19400
C598        C  0.10504363  0.99953042  0.73202972     0.01500
C599        C  0.08515706  0.97779712  0.69883120    -0.14500
C600        C  0.04780913  0.97913194  0.69778242    -0.12200
C601        C  0.02923508  0.00148969  0.73034703     0.01100
C602        C  0.04837882  0.02396327  0.76244076    -0.24400
H603        H  0.21631757  0.95134314  0.69676991     0.09100
H604        H  0.15231484  0.95139176  0.68854515     0.12600
H605        H  0.21227600  0.04323691  0.79255575     0.11400
H606        H  0.15510337  0.06734798  0.81822202     0.12600
H607        H  0.08997667  0.06670711  0.81641317     0.11600
H608        H  0.09771395  0.95992296  0.67277913     0.08700
H609        H  0.03333477  0.96192484  0.67227486     0.11900
H610        H  0.03393946  0.04189735  0.78687994     0.13800
C611        C  0.02990036  0.99722316  0.51443685    -0.01700
C612        C  0.04929856  0.00413620  0.55798283    -0.09700
C613        C  0.08663826  0.00411544  0.55782756    -0.18500
C614        C  0.10584252  0.99843814  0.02073509     0.03800
C615        C  0.08625203  0.01776122  0.98421187     0.18000
C616        C  0.04874395  0.01709594  0.98403196    -0.20000
C617        C  0.10417821  0.03768232  0.94807459    -0.21200
C618        C  0.14130962  0.03869685  0.94715856    -0.19800
C619        C  0.16139510  0.01855551  0.98098532     0.19400
C620        C  0.14398351  0.99750233  0.01766805     0.01500
C621        C  0.16602152  0.00473172  0.55336145    -0.14500
C622        C  0.20322899  0.00419149  0.54964011    -0.12200
C623        C  0.21966701  0.99484792  0.50505186     0.01100
C624        C  0.19885763  0.01873195  0.97759837    -0.24400
H625        H  0.03556027  0.00982375  0.59241993     0.09100
H626        H  0.09955034  0.00958896  0.59283772     0.12600
H627        H  0.03408345  0.03131166  0.95534974     0.11400
H628        H  0.08936570  0.05280119  0.92050259     0.12600
H629        H  0.15440665  0.05460772  0.91895276     0.11600
H630        H  0.15531321  0.01211672  0.58898898     0.08700
H631        H  0.21932271  0.01089420  0.58189636     0.11900
H632        H  0.21197010  0.03526130  0.95004433     0.13800
loop_ 
_geom_bond_atom_site_label_1 
_geom_bond_atom_site_label_2 
_geom_bond_distance 
_geom_bond_site_symmetry_2 
_ccdc_geom_bond_type 
O1           C11   1.278   1_545  A
O1         Cu325   2.012       .  S
O2           C12   1.278   1_545  A
O2           Cu9   2.006       .  S
O3          C329   1.276   1_545  A
O3           Cu9   2.005       .  S
O4          C330   1.278   1_544  A
O4         Cu325   2.012       .  S
O5          C330   1.278       .  A
O5          Cu10   2.013   1_556  S
O6          C329   1.277       .  A
O6         Cu326   2.011       .  S
O7           C12   1.277       .  A
O7         Cu326   2.005       .  S
O8           C11   1.276       .  A
O8          Cu10   1.998       .  S
Cu9         O317   2.004       .  S
Cu9         O320   2.007       .  S
Cu9        Cu326   2.378   1_545  S
Cu10        O322   2.012       .  S
Cu10        O323   2.008   1_554  S
Cu10       Cu325   2.376   1_565  S
C11          C26   1.464       .  S
C12          C25   1.464       .  S
C13         O319   1.277   1_565  A
C13         O322   1.278       .  A
C13         C307   1.471       .  S
C14         O320   1.277   1_565  A
C14         O321   1.278       .  A
C14          C67   1.467       .  S
O15          C25   1.276   1_545  A
O15         Cu23   1.997       .  S
O16          C26   1.277   1_545  A
O16         Cu23   2.004       .  S
O17          C27   1.278   1_545  A
O17         Cu23   2.012       .  S
O18          C28   1.278   1_545  A
O18         Cu23   2.011       .  S
O19          C28   1.277       .  A
O19         Cu24   2.006       .  S
O20          C27   1.277       .  A
O20         Cu24   2.009       .  S
O21          C26   1.278       .  A
O21         Cu24   2.005       .  S
O22          C25   1.279       .  A
O22         Cu24   2.015       .  S
Cu23        Cu24   2.376   1_545  S
C27         C273   1.473       .  S
C28          C83   1.467       .  S
O29          C39   1.276       .  A
O29        Cu353   1.996       .  S
O30          C40   1.278       .  A
O30         Cu37   2.006   1_554  S
O31          C41   1.277       .  A
O31         Cu37   2.009   1_554  S
O32          C42   1.278       .  A
O32         Cu37   2.009       .  S
O33          C42   1.278       .  A
O33         Cu38   2.012       .  S
O34          C41   1.278   1_556  A
O34         Cu38   2.011       .  S
O35          C40   1.277       .  A
O35         Cu38   2.009   1_554  S
O36          C39   1.278       .  A
O36        Cu354   2.006       .  S
Cu37        O345   2.020       .  S
Cu37        Cu38   2.376       .  S
Cu38        O352   2.005       .  S
C39          C53   1.460       .  S
C40          C54   1.466       .  S
C41         C251   1.469       .  S
C42         C123   1.468       .  S
O43          C53   1.277       .  A
O43         Cu51   2.003       .  S
O44          C54   1.277       .  A
O44         Cu51   2.003       .  S
O45          C55   1.277       .  A
O45         Cu51   2.005       .  S
O46          C56   1.276       .  A
O46         Cu51   2.003       .  S
O47          C56   1.278       .  A
O47         Cu52   2.013       .  S
O48          C55   1.279       .  A
O48         Cu52   2.015       .  S
O49          C54   1.278       .  A
O49         Cu52   2.012       .  S
O50          C53   1.276       .  A
O50         Cu52   1.997       .  S
Cu51        Cu52   2.377       .  S
C55         C139   1.468       .  S
C56         C229   1.466       .  S
O57          C67   1.278   1_545  A
O57         Cu65   2.012       .  S
O58         C384   1.278   1_545  A
O58         Cu65   2.015       .  S
O59          C69   1.276   1_545  A
O59         Cu65   2.000       .  S
O60          C70   1.278   1_545  A
O60        Cu381   2.012   1_554  S
O61          C70   1.277       .  A
O61         Cu66   2.001   1_554  S
O62          C69   1.279       .  A
O62        Cu382   2.013       .  S
O63          C68   1.277   1_554  A
O63         Cu66   2.008   1_554  S
O64         C383   1.277       .  A
O64         Cu66   2.009       .  S
Cu65        O376   2.006       .  S
Cu65       Cu382   2.377   1_545  S
Cu66        O378   2.010       .  S
Cu66       Cu381   2.376   1_565  S
C67         O380   1.277       .  A
C68         O374   1.278   1_565  A
C68         C207   1.469   1_556  S
C69          C82   1.465       .  S
C70          C81   1.465       .  S
O71          C81   1.278       .  A
O71         Cu79   2.007       .  S
O72          C82   1.276       .  A
O72         Cu79   2.000       .  S
O73          C83   1.278       .  A
O73         Cu79   2.007       .  S
O74          C84   1.277       .  A
O74         Cu79   2.005       .  S
O75          C84   1.277   1_545  A
O75         Cu80   2.011       .  S
O76          C83   1.278   1_545  A
O76         Cu80   2.012       .  S
O77          C82   1.279   1_545  A
O77         Cu80   2.011       .  S
O78          C81   1.277   1_545  A
O78         Cu80   2.008       .  S
Cu79        Cu80   2.377   1_565  S
C84         C185   1.465       .  S
O85         C411   1.278       .  A
O85         Cu93   2.008   1_545  S
O86         C412   1.278       .  A
O86         Cu93   2.013       .  S
O87         C413   1.277   1_545  A
O87         Cu93   2.004   1_545  S
O88         C414   1.278       .  A
O88         Cu93   2.002       .  S
O89          C98   1.278       .  A
O89         Cu94   2.012       .  S
O90          C97   1.278       .  A
O90         Cu94   2.003   1_545  S
O91          C96   1.278       .  A
O91         Cu94   2.009       .  S
O92          C95   1.280       .  A
O92         Cu94   2.017   1_545  S
Cu93       Cu410   2.371       .  S
Cu94       Cu409   2.373   1_554  S
C95         O401   1.277   1_554  A
C95         C163   1.481       .  S
C96         O402   1.279   1_554  A
C96         C263   1.479       .  S
C97         O403   1.278   1_554  A
C97         C219   1.477       .  S
C98         O404   1.278   1_554  A
C98         C295   1.475   1_655  S
O99         C109   1.278       .  A
O99        Cu107   2.004   1_545  S
O100        C110   1.277       .  A
O100       Cu107   2.009       .  S
O101        C111   1.279       .  A
O101       Cu107   2.014       .  S
O102        C112   1.279       .  A
O102       Cu107   2.015       .  S
O103        C112   1.277   1_545  A
O103       Cu108   2.004   1_545  S
O104        C111   1.277       .  A
O104       Cu108   2.001       .  S
O105        C110   1.279       .  A
O105       Cu108   2.010       .  S
O106        C109   1.279       .  A
O106       Cu108   2.018   1_545  S
Cu107      Cu108   2.370       .  S
C109        C141   1.479       .  S
C110        C241   1.479       .  S
C111        C285   1.473   1_655  S
C112        C197   1.480       .  S
O113        C123   1.278       .  A
O113       Cu121   2.009   1_556  S
O114        C124   1.277       .  A
O114       Cu121   2.007       .  S
O115        C125   1.277       .  A
O115       Cu121   2.000       .  S
O116        C126   1.279       .  A
O116       Cu437   2.017       .  S
O117        C126   1.276       .  A
O117       Cu438   2.004       .  S
O118        C125   1.278       .  A
O118       Cu122   2.012   1_554  S
O119        C124   1.277   1_556  A
O119       Cu122   2.009       .  S
O120        C123   1.278       .  A
O120       Cu122   2.012       .  S
Cu121       O432   2.002   1_554  S
Cu121      Cu122   2.378   1_554  S
Cu122       O433   2.004       .  S
C124        C175   1.464       .  S
C125        C138   1.465       .  S
C126        C137   1.468       .  S
O127        C137   1.279       .  A
O127       Cu135   2.018       .  S
O128        C138   1.277       .  A
O128       Cu135   2.007       .  S
O129        C139   1.277       .  A
O129       Cu135   2.010       .  S
O130        C140   1.277       .  A
O130       Cu135   2.013       .  S
O131        C140   1.278       .  A
O131       Cu136   2.013       .  S
O132        C139   1.278       .  A
O132       Cu136   2.009       .  S
O133        C138   1.278       .  A
O133       Cu136   2.005       .  S
O134        C137   1.276       .  A
O134       Cu136   2.003       .  S
Cu135      Cu136   2.376       .  S
C140        C153   1.471       .  S
C141        C142   1.400       .  A
C141        C146   1.403       .  A
C142        C143   1.395       .  A
C142        H155   1.084       .  S
C143        C144   1.414       .  A
C143        H156   1.077       .  S
C144        C150   1.429       .  A
C144        C145   1.422       .  A
C145        C147   1.400       .  A
C145        C146   1.408       .  A
C146        H157   1.084       .  S
C147        C148   1.392       .  A
C147        H158   1.084       .  S
C148        C149   1.401       .  A
C148        H159   1.084       .  S
C149        C150   1.423       .  A
C149        C154   1.408       .  A
C150        C151   1.415       .  A
C151        C152   1.395       .  A
C151        H160   1.077       .  S
C152        C153   1.397       .  A
C152        H161   1.084       .  S
C153        C154   1.400       .  A
C154        H162   1.084       .  S
C163        C480   1.401       .  A
C163        C484   1.403   1_554  A
C164        C165   1.397       .  A
C164        C479   1.400       .  A
C164        H177   1.084       .  S
C165        C166   1.415       .  A
C165        H178   1.077       .  S
C166        C172   1.429       .  A
C166        C167   1.422       .  A
C167        C169   1.400       .  A
C167        C168   1.404       .  A
C168        C479   1.401       .  A
C168        H179   1.085       .  S
C169        C170   1.390       .  A
C169        H180   1.084       .  S
C170        C171   1.399       .  A
C170        H181   1.084       .  S
C171        C172   1.424       .  A
C171        C176   1.404       .  A
C172        C173   1.416       .  A
C173        C174   1.397       .  A
C173        H182   1.077       .  S
C174        C491   1.397       .  A
C174        H183   1.084       .  S
C175        C490   1.396       .  A
C175        C492   1.397   1_554  A
C176        C491   1.398       .  A
C176        H184   1.085       .  S
C185        C186   1.396       .  A
C185        C190   1.398   1_565  A
C186        C187   1.395       .  A
C186        H199   1.084       .  S
C187        C188   1.416       .  A
C187        H200   1.077       .  S
C188        C194   1.429       .  A
C188        C189   1.424   1_565  A
C189        C191   1.399       .  A
C189        C190   1.406       .  A
C190        H201   1.085       .  S
C191        C192   1.390       .  A
C191        H202   1.084       .  S
C192        C193   1.400       .  A
C192        H203   1.084       .  S
C193        C194   1.422   1_545  A
C193        C198   1.405       .  A
C194        C195   1.415       .  A
C195        C196   1.396       .  A
C195        H204   1.077       .  S
C196        C197   1.400       .  A
C196        H205   1.083       .  S
C197        C198   1.403   1_565  A
C198        H206   1.085       .  S
C207        C208   1.397       .  A
C207        C212   1.399   1_564  A
C208        C209   1.395       .  A
C208        H537   1.084       .  S
C209        C210   1.416       .  A
C209        H222   1.077       .  S
C210        C216   1.428       .  A
C210        C211   1.423   1_564  A
C211        C213   1.400       .  A
C211        C212   1.406       .  A
C212        H223   1.085       .  S
C213        C214   1.391       .  A
C213        H224   1.084       .  S
C214        C215   1.400       .  A
C214        H225   1.084       .  S
C215        C216   1.423   1_546  A
C215        C220   1.406       .  A
C216        C217   1.414       .  A
C217        C218   1.394       .  A
C217        H226   1.077       .  S
C218        C219   1.400   1_565  A
C218        H543   1.084       .  S
C219        C220   1.402   1_554  A
C220        H228   1.085       .  S
H221        C524   1.084       .  S
H227        C534   1.084       .  S
C229        C230   1.395       .  A
C229        C234   1.400       .  A
C230        C231   1.394       .  A
C230        H243   1.084       .  S
C231        C232   1.416       .  A
C231        H244   1.077       .  S
C232        C238   1.428       .  A
C232        C233   1.423       .  A
C233        C235   1.400       .  A
C233        C234   1.406       .  A
C234        H245   1.085       .  S
C235        C236   1.392       .  A
C235        H246   1.084       .  S
C236        C237   1.401       .  A
C236        H247   1.084       .  S
C237        C238   1.422       .  A
C237        C242   1.407       .  A
C238        C239   1.414       .  A
C239        C240   1.393       .  A
C239        H248   1.076       .  S
C240        C241   1.399       .  A
C240        H249   1.083       .  S
C241        C242   1.404       .  A
C242        H250   1.084       .  S
C251        C252   1.398       .  A
C251        C572   1.396   1_554  A
C252        C253   1.399       .  A
C252        H265   1.084       .  S
C253        C254   1.416       .  A
C253        H266   1.078       .  S
C254        C260   1.430       .  A
C254        C571   1.423   1_554  A
C255        C257   1.400       .  A
C255        C256   1.407       .  A
C255        C570   1.423       .  A
C256        C567   1.400       .  A
C256        H267   1.085       .  S
C257        C258   1.391       .  A
C257        H268   1.084       .  S
C258        C259   1.400       .  A
C258        H269   1.084       .  S
C259        C264   1.406       .  A
C259        C576   1.422       .  A
C260        C261   1.415       .  A
C260        C575   1.422   1_554  A
C261        C262   1.398       .  A
C261        H270   1.077       .  S
C262        C263   1.401       .  A
C262        H271   1.083       .  S
C263        C580   1.400   1_554  A
C264        C579   1.402       .  A
C264        H272   1.085       .  S
C273        C274   1.399       .  A
C273        C278   1.399   1_565  A
C274        C275   1.397       .  A
C274        H287   1.084       .  S
C275        C276   1.415       .  A
C275        H288   1.078       .  S
C276        C282   1.428       .  A
C276        C277   1.422   1_565  A
C277        C279   1.399       .  A
C277        C278   1.404       .  A
C278        H289   1.085       .  S
C279        C280   1.390       .  A
C279        H290   1.084       .  S
C280        C281   1.399       .  A
C280        H291   1.084       .  S
C281        C282   1.423   1_545  A
C281        C286   1.404       .  A
C282        C283   1.415       .  A
C283        C284   1.396       .  A
C283        H292   1.078       .  S
C284        C285   1.400       .  A
C284        H293   1.084       .  S
C285        C286   1.399   1_565  A
C286        H294   1.085       .  S
C295        C296   1.400       .  A
C295        C616   1.400   1_564  A
C296        C297   1.399       .  A
C296        H309   1.083       .  S
C297        C614   1.416       .  A
C297        H310   1.078       .  S
C298        C304   1.429       .  A
C298        C299   1.422       .  A
C298        C613   1.416   1_565  A
C299        C301   1.400       .  A
C299        C300   1.403       .  A
C300        C611   1.402       .  A
C300        H311   1.085       .  S
C301        C302   1.389       .  A
C301        H312   1.084       .  S
C302        C303   1.399       .  A
C302        H313   1.084       .  S
C303        C304   1.425       .  A
C303        C308   1.405       .  A
C304        C621   1.416   1_565  A
C305        C306   1.398       .  A
C305        C620   1.415       .  A
C305        H314   1.078       .  S
C306        C307   1.399       .  A
C306        H315   1.084       .  S
C307        C624   1.398   1_564  A
C308        C623   1.397       .  A
C308        H316   1.085       .  S
O317        C327   1.277   1_545  A
O318        C328   1.278   1_545  A
O318       Cu325   2.008   1_556  S
O319       Cu325   2.009       .  S
O321       Cu326   2.011       .  S
O323        C328   1.278       .  A
O324        C327   1.278       .  A
O324       Cu326   2.010       .  S
C327        C342   1.465       .  S
C328        C341   1.467       .  S
C329        C623   1.464       .  S
C330        C383   1.470       .  S
O331        C341   1.277   1_545  A
O331       Cu339   2.008       .  S
O332        C342   1.278   1_545  A
O332       Cu339   2.012       .  S
O333        C343   1.278   1_545  A
O333       Cu339   2.012       .  S
O334        C344   1.278   1_545  A
O334       Cu339   2.012       .  S
O335        C344   1.278       .  A
O335       Cu340   2.011       .  S
O336        C343   1.278       .  A
O336       Cu340   2.010       .  S
O337        C342   1.276       .  A
O337       Cu340   2.001       .  S
O338        C341   1.278       .  A
O338       Cu340   2.010       .  S
Cu339      Cu340   2.376   1_545  S
C343        C589   1.475       .  S
C344        C399   1.469       .  S
O345        C355   1.279       .  A
O346        C356   1.278       .  A
O346       Cu353   2.007       .  S
O347        C357   1.278       .  A
O347       Cu353   2.019       .  S
O348        C358   1.278       .  A
O348       Cu353   2.016       .  S
O349        C358   1.277       .  A
O349       Cu354   2.005       .  S
O350        C357   1.277       .  A
O350       Cu354   2.007       .  S
O351        C356   1.277       .  A
O351       Cu354   2.003       .  S
O352        C355   1.277       .  A
Cu353      Cu354   2.377       .  S
C355        C369   1.470       .  S
C356        C370   1.464       .  S
C357        C567   1.472       .  S
C358        C439   1.468       .  S
O359        C369   1.278       .  A
O359       Cu367   2.015       .  S
O360        C370   1.277       .  A
O360       Cu367   2.002       .  S
O361        C371   1.279       .  A
O361       Cu367   2.015       .  S
O362        C372   1.279       .  A
O362       Cu367   2.014       .  S
O363        C372   1.277       .  A
O363       Cu368   2.007       .  S
O364        C371   1.277       .  A
O364       Cu368   2.006       .  S
O365        C370   1.278       .  A
O365       Cu368   2.010       .  S
O366        C369   1.278       .  A
O366       Cu368   2.008       .  S
Cu367      Cu368   2.376       .  S
C371        C455   1.469       .  S
C372        C545   1.474       .  S
O373        C383   1.279   1_545  A
O373       Cu381   2.016       .  S
O374       Cu381   2.014       .  S
O375        C385   1.277   1_545  A
O375       Cu381   2.004       .  S
O376        C386   1.278   1_545  A
O377        C386   1.277       .  A
O377       Cu382   2.005       .  S
O378        C385   1.278       .  A
O379        C384   1.277       .  A
O379       Cu382   2.008       .  S
O380       Cu382   2.006       .  S
C384        C523   1.469       .  S
C385        C398   1.465       .  S
C386        C397   1.464       .  S
O387        C397   1.278       .  A
O387       Cu395   2.011       .  S
O388        C398   1.277       .  A
O388       Cu395   2.004       .  S
O389        C399   1.278       .  A
O389       Cu395   2.011       .  S
O390        C400   1.277       .  A
O390       Cu395   2.008       .  S
O391        C400   1.277   1_545  A
O391       Cu396   2.010       .  S
O392        C399   1.278   1_545  A
O392       Cu396   2.012       .  S
O393        C398   1.278   1_545  A
O393       Cu396   2.008       .  S
O394        C397   1.277   1_545  A
O394       Cu396   2.001       .  S
Cu395      Cu396   2.377   1_565  S
C400        C501   1.467       .  S
O401       Cu409   2.001   1_545  S
O402       Cu409   2.012       .  S
O403       Cu409   2.013   1_545  S
O404       Cu409   2.005       .  S
O405        C414   1.279       .  A
O405       Cu410   2.010       .  S
O406        C413   1.279       .  A
O406       Cu410   2.014       .  S
O407        C412   1.278       .  A
O407       Cu410   2.006       .  S
O408        C411   1.278       .  A
O408       Cu410   2.008   1_545  S
C411        C479   1.478       .  S
C412        C579   1.477       .  S
C413        C535   1.479       .  S
C414        C611   1.479   1_655  S
O415        C425   1.277       .  A
O415       Cu423   2.002   1_545  S
O416        C426   1.278       .  A
O416       Cu423   2.005       .  S
O417        C427   1.277       .  A
O417       Cu423   2.005   1_545  S
O418        C428   1.278       .  A
O418       Cu423   2.007       .  S
O419        C428   1.278   1_545  A
O419       Cu424   2.011       .  S
O420        C427   1.278   1_565  A
O420       Cu424   2.012   1_565  S
O421        C426   1.278       .  A
O421       Cu424   2.014   1_565  S
O422        C425   1.280       .  A
O422       Cu424   2.019       .  S
Cu423      Cu424   2.370   1_565  S
C425        C457   1.478       .  S
C426        C557   1.474       .  S
C427        C601   1.471   1_655  S
C428        C513   1.479       .  S
O429        C439   1.278       .  A
O429       Cu437   2.015       .  S
O430        C440   1.278       .  A
O430       Cu437   2.013       .  S
O431        C441   1.277       .  A
O431       Cu437   2.007       .  S
O432        C442   1.277       .  A
O433        C442   1.277       .  A
O434        C441   1.278       .  A
O434       Cu438   2.006       .  S
O435        C440   1.276       .  A
O435       Cu438   2.005       .  S
O436        C439   1.277       .  A
O436       Cu438   2.005       .  S
Cu437      Cu438   2.377       .  S
C440        C491   1.468       .  S
C441        C454   1.465       .  S
C442        C453   1.463       .  S
O443        C453   1.277       .  A
O443       Cu451   2.003       .  S
O444        C454   1.276       .  A
O444       Cu451   1.997       .  S
O445        C455   1.278       .  A
O445       Cu451   2.009       .  S
O446        C456   1.277       .  A
O446       Cu451   2.009       .  S
O447        C456   1.278       .  A
O447       Cu452   2.011       .  S
O448        C455   1.278       .  A
O448       Cu452   2.013       .  S
O449        C454   1.279       .  A
O449       Cu452   2.015       .  S
O450        C453   1.277       .  A
O450       Cu452   2.003       .  S
Cu451      Cu452   2.377       .  S
C456        C469   1.469       .  S
C457        C458   1.401       .  A
C457        C462   1.401       .  A
C458        C459   1.396       .  A
C458        H471   1.083       .  S
C459        C460   1.414       .  A
C459        H472   1.077       .  S
C460        C466   1.429       .  A
C460        C461   1.423       .  A
C461        C463   1.399       .  A
C461        C462   1.406       .  A
C462        H473   1.085       .  S
C463        C464   1.390       .  A
C463        H474   1.084       .  S
C464        C465   1.399       .  A
C464        H475   1.084       .  S
C465        C466   1.423       .  A
C465        C470   1.404       .  A
C466        C467   1.416       .  A
C467        C468   1.397       .  A
C467        H476   1.077       .  S
C468        C469   1.398       .  A
C468        H477   1.084       .  S
C469        C470   1.398       .  A
C470        H478   1.085       .  S
C480        C481   1.396       .  A
C480        H493   1.083       .  S
C481        C482   1.415       .  A
C481        H494   1.077       .  S
C482        C488   1.429       .  A
C482        C483   1.422   1_554  A
C483        C485   1.400       .  A
C483        C484   1.404       .  A
C484        H495   1.085       .  S
C485        C486   1.390       .  A
C485        H496   1.084       .  S
C486        C487   1.399       .  A
C486        H497   1.084       .  S
C487        C488   1.425   1_556  A
C487        C492   1.405       .  A
C488        C489   1.416       .  A
C489        C490   1.395       .  A
C489        H498   1.078       .  S
C490        H499   1.084       .  S
C492        H500   1.085       .  S
C501        C502   1.396       .  A
C501        C506   1.398   1_565  A
C502        C503   1.396       .  A
C502        H515   1.084       .  S
C503        C504   1.416       .  A
C503        H516   1.077       .  S
C504        C510   1.429       .  A
C504        C505   1.424   1_565  A
C505        C507   1.399       .  A
C505        C506   1.405       .  A
C506        H517   1.085       .  S
C507        C508   1.390       .  A
C507        H518   1.084       .  S
C508        C509   1.399       .  A
C508        H519   1.084       .  S
C509        C510   1.423   1_545  A
C509        C514   1.405       .  A
C510        C511   1.415       .  A
C511        C512   1.396       .  A
C511        H520   1.077       .  S
C512        C513   1.401       .  A
C512        H521   1.083       .  S
C513        C514   1.402   1_565  A
C514        H522   1.085       .  S
C523        C524   1.396       .  A
C523        C528   1.398   1_565  A
C524        C525   1.396       .  A
C525        C526   1.416       .  A
C525        H538   1.076       .  S
C526        C532   1.430       .  A
C526        C527   1.424   1_565  A
C527        C529   1.399       .  A
C527        C528   1.406       .  A
C528        H539   1.084       .  S
C529        C530   1.390       .  A
C529        H540   1.084       .  S
C530        C531   1.400       .  A
C530        H541   1.084       .  S
C531        C532   1.422   1_545  A
C531        C536   1.405       .  A
C532        C533   1.416       .  A
C533        C534   1.397       .  A
C533        H542   1.076       .  S
C534        C535   1.399       .  A
C535        C536   1.403   1_565  A
C536        H544   1.084       .  S
C545        C546   1.399       .  A
C545        C550   1.399       .  A
C546        C547   1.397       .  A
C546        H559   1.083       .  S
C547        C548   1.415       .  A
C547        H560   1.078       .  S
C548        C554   1.429       .  A
C548        C549   1.423       .  A
C549        C551   1.399       .  A
C549        C550   1.404       .  A
C550        H561   1.085       .  S
C551        C552   1.389       .  A
C551        H562   1.084       .  S
C552        C553   1.399       .  A
C552        H563   1.084       .  S
C553        C554   1.422       .  A
C553        C558   1.403       .  A
C554        C555   1.416       .  A
C555        C556   1.398       .  A
C555        H564   1.078       .  S
C556        C557   1.399       .  A
C556        H565   1.083       .  S
C557        C558   1.400       .  A
C558        H566   1.085       .  S
C567        C568   1.398       .  A
C568        C569   1.395       .  A
C568        H581   1.084       .  S
C569        C570   1.415       .  A
C569        H582   1.077       .  S
C570        C576   1.429       .  A
C571        C573   1.398       .  A
C571        C572   1.403       .  A
C572        H583   1.085       .  S
C573        C574   1.388       .  A
C573        H584   1.083       .  S
C574        C575   1.399       .  A
C574        H585   1.083       .  S
C575        C580   1.404       .  A
C576        C577   1.415       .  A
C577        C578   1.395       .  A
C577        H586   1.078       .  S
C578        C579   1.400       .  A
C578        H587   1.084       .  S
C580        H588   1.085       .  S
C589        C590   1.399       .  A
C589        C594   1.400   1_565  A
C590        C591   1.396       .  A
C590        H603   1.084       .  S
C591        C592   1.414       .  A
C591        H604   1.078       .  S
C592        C598   1.428       .  A
C592        C593   1.423   1_565  A
C593        C595   1.400       .  A
C593        C594   1.406       .  A
C594        H605   1.085       .  S
C595        C596   1.390       .  A
C595        H606   1.084       .  S
C596        C597   1.400       .  A
C596        H607   1.084       .  S
C597        C598   1.422   1_545  A
C597        C602   1.404       .  A
C598        C599   1.416       .  A
C599        C600   1.397       .  A
C599        H608   1.078       .  S
C600        C601   1.398   1_565  A
C600        H609   1.084       .  S
C601        C602   1.399       .  A
C602        H610   1.085       .  S
C611        C612   1.400   1_565  A
C612        C613   1.396       .  A
C612        H625   1.083       .  S
C613        H626   1.077       .  S
C614        C620   1.429       .  A
C614        C615   1.422   1_564  A
C615        C617   1.399       .  A
C615        C616   1.402       .  A
C616        H627   1.085       .  S
C617        C618   1.389       .  A
C617        H628   1.084       .  S
C618        C619   1.399       .  A
C618        H629   1.084       .  S
C619        C620   1.424   1_546  A
C619        C624   1.404       .  A
C621        C622   1.395       .  A
C621        H630   1.077       .  S
C622        C623   1.396   1_545  A
C622        H631   1.084       .  S
C624        H632   1.085       .  S
