geometry optimzed in LAMMPS
_audit_creation_date              2020-11-30 
_audit_creation_method            'lammps2cif' 
_symmetry_space_group_name_H-M    'P1' 
_symmetry_Int_Tables_number       1 
_symmetry_cell_setting            triclinic 
loop_ 
_symmetry_equiv_pos_as_xyz 
  x,y,z 
_cell_length_a                    46.74523626 
_cell_length_b                    22.591041021801175 
_cell_length_c                    39.14097694770116 
_cell_angle_alpha                 89.99626645732825 
_cell_angle_beta                  85.90563077451931 
_cell_angle_gamma                 90.00641962144867 
loop_ 
_atom_site_label 
_atom_site_type_symbol 
_atom_site_fract_x 
_atom_site_fract_y 
_atom_site_fract_z 
_atom_site_charge 
C1          C  0.12385918  0.80755055  0.47793547     0.86400
C2          C  0.09983400  0.80140424  0.00627794    -0.53900
C3          C  0.10144569  0.75265251  0.02831751     0.09300
C4          C  0.12822587  0.71248810  0.01629065     0.20200
C5          C  0.15110705  0.80306861  0.49841664    -0.54600
C6          C  0.15461559  0.75668567  0.01871957     0.09400
C7          C  0.12347168  0.74808147  0.45788517    -0.54100
C8          C  0.12465488  0.69683128  0.47645387     0.10000
H9          H  0.08410751  0.83603606  0.01131869     0.14500
H10         H  0.12990557  0.67221062  0.03225453     0.00200
H11         H  0.16651130  0.83904822  0.49828217     0.14800
H12         H  0.12238699  0.74591780  0.43042458     0.14600
C13         C  0.12900115  0.69212542  0.22257053     0.86400
C14         C  0.15721611  0.70370133  0.23989837    -0.53900
C15         C  0.15775292  0.75243360  0.26138281     0.09300
C16         C  0.12868919  0.78901689  0.26150163     0.20200
C17         C  0.10568864  0.69330511  0.25314114    -0.54600
C18         C  0.10511005  0.74261599  0.27469812     0.09400
C19         C  0.12427798  0.75109357  0.20302600    -0.54100
C20         C  0.12357613  0.80233834  0.22205124     0.10000
H21         H  0.17453862  0.67158353  0.23816970     0.14500
H22         H  0.12871486  0.82946652  0.27758577     0.00200
H23         H  0.09195334  0.65546233  0.25839891     0.14800
H24         H  0.12315127  0.75276815  0.17565507     0.14600
C25         C  0.38164474  0.30915886  0.00285013     0.86400
C26         C  0.40615666  0.30125247  0.47534958    -0.53900
C27         C  0.40450209  0.25257833  0.45319321     0.09300
C28         C  0.37742473  0.21306568  0.46467483     0.20200
C29         C  0.35407689  0.30607994  0.48292869    -0.54600
C30         C  0.35131902  0.25789089  0.46168353     0.09400
C31         C  0.38195601  0.24962939  0.02279842    -0.54100
C32         C  0.37962276  0.19895659  0.50520319     0.10000
H33         H  0.42223335  0.33532091  0.47081290     0.14500
H34         H  0.37578611  0.17286202  0.44864899     0.00200
H35         H  0.33904177  0.34271014  0.48286417     0.14800
H36         H  0.38276987  0.24735342  0.05029796     0.14600
C37         C  0.37757115  0.19266276  0.25807625     0.86400
C38         C  0.34948610  0.20296054  0.24017708    -0.53900
C39         C  0.34865939  0.25172440  0.21876018     0.09300
C40         C  0.37735081  0.28937844  0.21914563     0.20200
C41         C  0.40120135  0.19456922  0.22791340    -0.54600
C42         C  0.40138444  0.24366004  0.20624099     0.09400
C43         C  0.38168019  0.25176233  0.27770535    -0.54100
C44         C  0.38200365  0.30295162  0.25875395     0.10000
H45         H  0.33247271  0.17014844  0.24168296     0.14500
H46         H  0.37718213  0.32976753  0.20302407     0.00200
H47         H  0.41528553  0.15717252  0.22279101     0.14800
H48         H  0.38301851  0.25353139  0.30506635     0.14600
N49         N  0.08692153  0.75580864  0.06403838    -0.03600
C50         C  0.08344650  0.71561010  0.09093749    -0.01000
C51         C  0.09145651  0.74180387  0.12067891    -0.23900
C52         C  0.09889943  0.79797746  0.11349626    -0.24100
C53         C  0.08992860  0.80729186  0.08136097    -0.01100
H54         H  0.08500327  0.72813746  0.14653297     0.12700
H55         H  0.10023391  0.83143904  0.13317220     0.12700
N56         N  0.08903230  0.74110337  0.30946173    -0.03600
C57         C  0.08685627  0.78305638  0.33523026    -0.01000
C58         C  0.09458964  0.75839288  0.36553068    -0.23900
C59         C  0.10066073  0.70127171  0.35980290    -0.24100
C60         C  0.09072036  0.69079984  0.32823936    -0.01100
H61         H  0.08826691  0.77363710  0.39105305     0.12700
H62         H  0.10151128  0.66917581  0.38033578     0.12700
N63         N  0.38207321  0.36618703  0.02542592    -0.03600
C64         C  0.39855820  0.36650426  0.05327002    -0.01000
C65         C  0.38164937  0.35283727  0.08237336    -0.23900
C66         C  0.35449447  0.34935272  0.07309497    -0.24100
C67         C  0.35623070  0.37982929  0.04311340    -0.01100
H68         H  0.38690888  0.35979632  0.10855641     0.12700
H69         H  0.33660615  0.35096815  0.09171091     0.12700
N70         N  0.38431970  0.36236040  0.27575497    -0.03600
C71         C  0.40917513  0.39551065  0.27038626    -0.01000
C72         C  0.40378147  0.44242764  0.24900592    -0.23900
C73         C  0.37470575  0.44796931  0.24949632    -0.24100
C74         C  0.36340504  0.40321499  0.27030742    -0.01100
H75         H  0.41849287  0.47822630  0.24209425     0.12700
H76         H  0.36376016  0.48819573  0.24290522     0.12700
N77         N  0.17571281  0.75900812  0.04604365    -0.03600
C78         C  0.17429077  0.72113375  0.07337527    -0.01000
C79         C  0.16266062  0.75041218  0.10215396    -0.23900
C80         C  0.15976932  0.80777817  0.09355497    -0.24100
C81         C  0.17633260  0.81167582  0.06333005    -0.01100
H82         H  0.16521327  0.73885322  0.12843696     0.12700
H83         H  0.15764489  0.84225292  0.11286578     0.12700
N84         N  0.17822923  0.75368507  0.28905272    -0.03600
C85         C  0.17226102  0.79033213  0.31650301    -0.01000
C86         C  0.15832873  0.75743813  0.34229364    -0.23900
C87         C  0.16017250  0.69988041  0.33338533    -0.24100
C88         C  0.17903128  0.70003359  0.30521115    -0.01100
H89         H  0.15396158  0.76804237  0.36835406     0.12700
H90         H  0.15747105  0.66429489  0.35196418     0.12700
N91         N  0.38019815  0.13969046  0.02268367    -0.03600
C92         C  0.40111844  0.09703528  0.01572292    -0.01000
C93         C  0.38933427  0.05168462  0.99758100    -0.23900
C94         C  0.36024632  0.05799338  0.00237018    -0.24100
C95         C  0.35538612  0.10710990  0.02306622    -0.01100
H96         H  0.39976552  0.01023121  0.99045578     0.12700
H97         H  0.34525405  0.02208006  0.99945441     0.12700
N98         N  0.37687943  0.13583377  0.28040952    -0.03600
C99         C  0.39969776  0.12581321  0.30054195    -0.01000
C100        C  0.39227905  0.13885898  0.33378887    -0.23900
C101        C  0.36461460  0.14871814  0.33656941    -0.24100
C102        C  0.35461086  0.13341508  0.30561863    -0.01100
H103        H  0.40350169  0.12643654  0.35571024     0.12700
H104        H  0.35370525  0.14458794  0.36142915     0.12700
N105        N  0.41674612  0.24144519  0.17116279    -0.03600
C106        C  0.41894737  0.28349430  0.14553346    -0.01000
C107        C  0.41113835  0.25919453  0.11519057    -0.23900
C108        C  0.40485293  0.20212345  0.12081343    -0.24100
C109        C  0.41450484  0.19116694  0.15247585    -0.01100
H110        H  0.41747399  0.27462487  0.08970629     0.12700
H111        H  0.40387731  0.17018962  0.10022914     0.12700
N112        N  0.41932041  0.25559615  0.41767931    -0.03600
C113        C  0.42279469  0.21600874  0.39045494    -0.01000
C114        C  0.41493372  0.24308875  0.36089198    -0.23900
C115        C  0.40772721  0.29918657  0.36855277    -0.24100
C116        C  0.41668735  0.30741015  0.40077623    -0.01100
H117        H  0.42146364  0.23015576  0.33493019     0.12700
H118        H  0.40656864  0.33322231  0.34921161     0.12700
Zr119      Zr  0.01283869  0.89177516  0.14647799     2.17500
O120        O  0.49525165  0.79075552  0.15903610    -0.51400
O121        O  0.05619385  0.87656168  0.17737194    -0.74700
O122        O  0.04401337  0.83164922  0.10630173    -0.81400
O123        O  0.46339159  0.95200607  0.20848850    -0.83200
O124        O  0.06754093  0.89554923  0.07016655    -0.78800
O125        O  0.00269000  0.90130450  0.20880695    -0.90400
O126        O  0.07728844  0.96730258  0.17229773    -0.76400
O127        O  0.04701409  0.94562449  0.11140193    -0.85900
O128        O  0.01741861  0.98979021  0.16902172    -0.85600
O129        O  0.49058510  0.89541661  0.09243450    -0.72300
O130        O  0.46483897  0.93512683  0.14676827    -0.84500
Zr131      Zr  0.48427560  0.09080755  0.08032879     2.26400
Zr132      Zr  0.02685794  0.94945557  0.05743528     2.06300
Zr133      Zr  0.47115164  0.03182244  0.17047550     2.10000
Zr134      Zr  0.05211798  0.03979431  0.13486337     1.78800
O135        O  0.42935530  0.03107247  0.21127239    -0.93300
O136        O  0.09577197  0.03364635  0.09741886    -0.41100
O137        O  0.00544326  0.08763290  0.13472972    -0.77700
O138        O  0.03268653  0.04851189  0.07923044    -0.96400
O139        O  0.48013224  0.99360220  0.05898604    -0.89700
O140        O  0.45002884  0.03876749  0.11671033    -0.92600
C141        C  0.07589705  0.91334551  0.18458837     1.01200
C142        C  0.98538722  0.93999199  0.22258988     1.14100
C143        C  0.06538194  0.84611716  0.08499082     1.04900
O144        O  0.06188569  0.94259887  0.00842272    -0.94700
O145        O  0.02933378  0.01959185  0.01300444    -0.90500
O146        O  0.48395930  0.05613812  0.02018495    -0.83600
C147        C  0.00490206  0.02574902  0.00207163     1.11500
O148        O  0.42331967  0.84768320  0.09864532    -0.96700
Zr149      Zr  0.44440281  0.94588742  0.09164892     1.88900
O150        O  0.44107063  0.11296351  0.05108651    -0.73300
O151        O  0.51047368  0.86708340  0.02240015    -0.52600
O152        O  0.43408998  0.89221646  0.03997708    -0.97300
O153        O  0.39893834  0.95671886  0.12509140    -0.54500
O154        O  0.42125906  0.02076594  0.05251849    -0.73800
C155        C  0.42214310  0.07611584  0.04186157     0.98500
O156        O  0.00543789  0.18391515  0.05842611    -0.62700
O157        O  0.99169184  0.09692552  0.21121991    -0.57500
O158        O  0.45593173  0.15563681  0.12089231    -0.94200
O159        O  0.43903754  0.11014096  0.17013916    -0.92600
O160        O  0.06342449  0.09105703  0.18706848    -0.92900
O161        O  0.07279334  0.13891477  0.13244365    -0.91700
C162        C  0.43877504  0.15122822  0.14849019     1.17300
H163        H  0.02539326  0.99193042  0.19096503     0.33300
H164        H  0.04583313  0.07125485  0.06426973     0.44100
H165        H  0.43115571  0.05622825  0.11770696     0.37700
H166        H  0.48840460  0.85534731  0.08448774     0.34100
H167        H  0.09195071  0.00274260  0.08041463     0.25900
H168        H  0.01916680  0.82949821  0.03515532     0.31900
H169        H  0.43979885  0.91948069  0.02088296     0.37800
H170        H  0.08349348  0.07999896  0.19068744     0.32200
H171        H  0.00333600  0.12613303  0.19748402     0.31100
H172        H  0.43526685  0.05332722  0.23127787     0.32800
H173        H  0.39942998  0.92686244  0.14355931     0.31800
H174        H  0.06304023  0.15927999  0.11412840     0.35800
H175        H  0.02615609  0.17564222  0.05391626     0.28500
H176        H  0.01103502  0.77181525  0.16853929     0.32700
H177        H  0.43662611  0.82589233  0.11269382     0.35600
H178        H  0.97530169  0.12017491  0.22146722     0.28200
H179        H  0.99816207  0.18829826  0.03541186     0.41100
H180        H  0.07947171  0.96180879  0.01580845     0.31100
H181        H  0.09658829  0.07088131  0.08405595     0.38700
H182        H  0.38464195  0.94152965  0.10980586     0.30600
H183        H  0.48929182  0.86898942  0.02366392     0.30600
H184        H  0.48660958  0.77823435  0.13782074     0.30900
Zr185      Zr  0.48754893  0.07731127  0.31945706     2.17500
O186        O  0.01263129  0.15627760  0.28608091    -0.51400
O187        O  0.44645661  0.09545420  0.28913041    -0.74700
O188        O  0.47936936  0.01749143  0.26619241    -0.81400
O189        O  0.45334401  0.14359552  0.41105976    -0.83200
O190        O  0.02036472  0.97032865  0.25849939    -0.78800
O191        O  0.45768137  0.15784014  0.35348385    -0.90400
O192        O  0.41739209  0.03267282  0.32127647    -0.76400
O193        O  0.47340782  0.97732336  0.31195233    -0.85900
O194        O  0.45738118  0.05159491  0.36839647    -0.85600
O195        O  0.03182231  0.01866541  0.31519759    -0.72300
O196        O  0.01844696  0.08973351  0.36549717    -0.84500
Zr197      Zr  0.01465703  0.90368755  0.40573595     2.26400
Zr198      Zr  0.01596398  0.91659590  0.30979102     2.06300
Zr199      Zr  0.48641853  0.06431305  0.41543018     2.10000
Zr200      Zr  0.44176042  0.95583224  0.35838657     1.78800
O201        O  0.02591795  0.12967289  0.42920723    -0.93300
O202        O  0.41931979  0.89805260  0.31497647    -0.41100
O203        O  0.47052042  0.96360859  0.40783038    -0.77700
O204        O  0.48332857  0.88977564  0.35934411    -0.96400
O205        O  0.04396157  0.92881095  0.35718312    -0.89700
O206        O  0.02935307  0.00491778  0.41280910    -0.92600
C207        C  0.42167582  0.07769540  0.29998309     1.01200
C208        C  0.44672099  0.17121593  0.38472872     1.14100
C209        C  0.99578914  0.98032379  0.24894633     1.04900
O210        O  0.47604949  0.84858198  0.29753589    -0.94700
O211        O  0.05533322  0.85169245  0.31332027    -0.90500
O212        O  0.05011046  0.83644695  0.37067319    -0.83600
C213        C  0.06252323  0.82565147  0.33996290     1.11500
O214        O  0.08871281  0.10617713  0.33930300    -0.96700
Zr215      Zr  0.06032964  0.02470666  0.36450809     1.88900
O216        O  0.05799418  0.88749810  0.43331371    -0.73300
O217        O  0.03700823  0.84968932  0.26558883    -0.52600
O218        O  0.09497154  0.98843376  0.31992766    -0.97300
O219        O  0.08717778  0.08527035  0.40280583    -0.54500
O220        O  0.08611915  0.94732843  0.39825157    -0.73800
C221        C  0.08254111  0.90492768  0.42105224     0.98500
O222        O  0.49149551  0.81515953  0.43277524    -0.62700
O223        O  0.46991679  0.11740856  0.46779754    -0.57500
O224        O  0.01247599  0.94460005  0.46438264    -0.94200
O225        O  0.47296440  0.99743818  0.45956709    -0.92600
O226        O  0.40255425  0.98770050  0.39845759    -0.92900
O227        O  0.41474471  0.87329991  0.38453882    -0.91700
C228        C  0.99563030  0.98650344  0.47520482     1.17300
H229        H  0.43881273  0.06944748  0.37197151     0.33300
H230        H  0.47746531  0.84878993  0.35897160     0.44100
H231        H  0.04039431  0.01198777  0.43232795     0.37700
H232        H  0.04413523  0.03164933  0.29575962     0.34100
H233        H  0.39852091  0.90572588  0.31930884     0.25900
H234        H  0.02116632  0.82954580  0.25481755     0.31900
H235        H  0.10318630  0.95223542  0.32960820     0.37800
H236        H  0.39424818  0.02278102  0.38767234     0.32200
H237        H  0.47388831  0.16024378  0.46476082     0.31100
H238        H  0.01999077  0.16972516  0.42221797     0.32800
H239        H  0.10643351  0.06682278  0.40209315     0.31800
H240        H  0.42949566  0.84478285  0.39103608     0.35800
H241        H  0.50266481  0.80758123  0.45289378     0.28500
H242        H  0.99834445  0.17127321  0.27071804     0.32700
H243        H  0.07516873  0.12861209  0.32589915     0.35600
H244        H  0.44879060  0.11349483  0.47056486     0.28200
H245        H  0.47261528  0.82914077  0.44268186     0.41100
H246        H  0.46932084  0.86258612  0.27555959     0.31100
H247        H  0.42456950  0.91879643  0.29312989     0.38700
H248        H  0.07879872  0.07700156  0.42624129     0.30600
H249        H  0.04599747  0.87517027  0.24737600     0.30600
H250        H  0.02704741  0.13545210  0.27069144     0.30900
N251        N  0.12102570  0.86180593  0.20522040    -0.03600
C252        C  0.09653706  0.89574052  0.21171953     0.01400
C253        C  0.10293506  0.94245983  0.23278397    -0.23900
C254        C  0.13209071  0.94708550  0.23092888    -0.24100
C255        C  0.14245823  0.90192275  0.20974235    -0.01100
H256        H  0.08869393  0.97876669  0.24027220     0.12700
H257        H  0.14356560  0.98698932  0.23694441     0.12700
N258        N  0.12354401  0.86482363  0.45542221    -0.03600
C259        C  0.10734231  0.86529822  0.42730186    -0.01000
C260        C  0.12454070  0.85124589  0.39850644    -0.23900
C261        C  0.15158953  0.84747531  0.40824732    -0.24100
C262        C  0.14957748  0.87840749  0.43803242    -0.01100
H263        H  0.11960178  0.85793592  0.37219578     0.12700
H264        H  0.16972864  0.84845131  0.38992450     0.12700
Zr265      Zr  0.23232789  0.90169835  0.14630024     2.17500
O266        O  0.25313432  0.80730037  0.16008796    -0.51400
O267        O  0.18464945  0.88203322  0.17299038    -0.74700
O268        O  0.22942366  0.90785509  0.20941109    -0.81400
O269        O  0.21194502  0.88232895  0.04900819    -0.83200
O270        O  0.21806948  0.00378471  0.21462882    -0.78800
O271        O  0.21312014  0.83697667  0.10082355    -0.90400
O272        O  0.16420333  0.97332969  0.17005497    -0.76400
O273        O  0.21736535  0.99544151  0.16737378    -0.85900
O274        O  0.20617168  0.95261691  0.10643129    -0.85600
O275        O  0.27496770  0.95672180  0.15917616    -0.72300
O276        O  0.26894068  0.91507801  0.10077882    -0.84500
Zr277      Zr  0.26826764  0.11270269  0.09348171     2.26400
Zr278      Zr  0.25746500  0.05065642  0.18174544     2.06300
Zr279      Zr  0.24141093  0.96446131  0.06055792     2.10000
Zr280      Zr  0.19034708  0.04382334  0.12914753     1.78800
O281        O  0.26481882  0.88244392  0.02929011    -0.93300
O282        O  0.16847997  0.10454206  0.17529469    -0.41100
O283        O  0.22526334  0.05926634  0.08164881    -0.77700
O284        O  0.23228043  0.10244670  0.13987144    -0.96400
O285        O  0.29283072  0.06487063  0.13576894    -0.89700
O286        O  0.28297660  0.01778480  0.07343312    -0.92600
C287        C  0.16479644  0.91935094  0.18183978     1.01200
C288        C  0.20358503  0.84248030  0.07027458     1.14100
C289        C  0.22095598  0.95288006  0.22767404     1.04900
O290        O  0.23655677  0.13854455  0.21038995    -0.94700
O291        O  0.29041340  0.12957012  0.19012447    -0.90500
O292        O  0.29088479  0.17320203  0.13753160    -0.83600
C293        C  0.29955125  0.16843555  0.16838072     1.11500
O294        O  0.33548957  0.89284274  0.13758785    -0.96700
Zr295      Zr  0.31068972  0.97533992  0.11275896     1.88900
O296        O  0.31442328  0.12972160  0.06139737    -0.73300
O297        O  0.28875262  0.00945679  0.22295319    -0.52600
O298        O  0.34475079  0.01243166  0.15195708    -0.97300
O299        O  0.33682963  0.91347958  0.07006583    -0.54500
O300        O  0.33922610  0.04508218  0.07162208    -0.73800
C301        C  0.33596706  0.09498432  0.05518844     0.98500
O302        O  0.24788357  0.20877606  0.08172827    -0.62700
O303        O  0.20575596  0.00133469  0.02309039    -0.57500
O304        O  0.26829199  0.10869052  0.03104852    -0.94200
O305        O  0.26714339  0.01112357  0.01565633    -0.92600
O306        O  0.15393007  0.01373104  0.09123766    -0.92900
O307        O  0.16247295  0.12382619  0.10624530    -0.91700
C308        C  0.27090618  0.06554886  0.00954156     1.17300
H309        H  0.18895283  0.93237932  0.10113747     0.33300
H310        H  0.22634025  0.14118497  0.14802359     0.44100
H311        H  0.29698689  0.01759897  0.05447809     0.37700
H312        H  0.28426723  0.93352479  0.17581626     0.34100
H313        H  0.14757027  0.09966434  0.17363487     0.25900
H314        H  0.28162213  0.96890195  0.22755109     0.31900
H315        H  0.35508819  0.04490825  0.13936365     0.37800
H316        H  0.14445612  0.97904541  0.10264538     0.32200
H317        H  0.18703804  0.98776612  0.03367362     0.31100
H318        H  0.28425135  0.89720231  0.02202201     0.32800
H319        H  0.33695937  0.93603449  0.04837122     0.31800
H320        H  0.17699617  0.15302939  0.09748459     0.35800
H321        H  0.23692876  0.20225223  0.06132144     0.28500
H322        H  0.26428500  0.81568715  0.18011550     0.32700
H323        H  0.32224576  0.85889305  0.13602363     0.35600
H324        H  0.20529908  0.04491543  0.02556530     0.28200
H325        H  0.23296493  0.21478659  0.10062850     0.41100
H326        H  0.21636076  0.12787021  0.21686213     0.31100
H327        H  0.17244522  0.08304076  0.19648585     0.38700
H328        H  0.32388937  0.87962806  0.06665273     0.30600
H329        H  0.30767431  0.00449593  0.21023834     0.30600
H330        H  0.26785132  0.80066020  0.14102053     0.30900
Zr331      Zr  0.19520202  0.98751336  0.34610499     2.17500
O332        O  0.15241042  0.03961333  0.33049260    -0.51400
O333        O  0.17922300  0.89154621  0.32811380    -0.74700
O334        O  0.20022409  0.97582460  0.28317280    -0.81400
O335        O  0.17829374  0.96203739  0.44911704    -0.83200
O336        O  0.24496966  0.93910490  0.27565785    -0.78800
O337        O  0.16001408  0.95925394  0.39693572    -0.90400
O338        O  0.21598424  0.82959981  0.33912783    -0.76400
O339        O  0.23847975  0.93984003  0.32552494    -0.85900
O340        O  0.21499197  0.93645599  0.39082885    -0.85600
O341        O  0.22926908  0.06179953  0.32338282    -0.72300
O342        O  0.20528390  0.06695438  0.38425667    -0.84500
Zr343      Zr  0.29776908  0.03153471  0.39331208     2.26400
Zr344      Zr  0.27320082  0.01040128  0.30430496     2.06300
Zr345      Zr  0.22209957  0.01245234  0.43120887     2.10000
Zr346      Zr  0.25503292  0.88318016  0.36915293     1.78800
O347        O  0.18309802  0.06510092  0.46264643    -0.93300
O348        O  0.28047340  0.82339404  0.32505224    -0.41100
O349        O  0.26423631  0.95646579  0.41259393    -0.77700
O350        O  0.29082229  0.95658104  0.35140499    -0.96400
O351        O  0.28246004  0.08167238  0.34600681    -0.89700
O352        O  0.25581207  0.08558361  0.40915747    -0.92600
C353        C  0.19103571  0.84037039  0.32727019     1.01200
C354        C  0.16093204  0.94047362  0.42885480     1.14100
C355        C  0.22098891  0.95229576  0.26430964     1.04900
O356        O  0.31143503  0.95114733  0.27567119    -0.94700
O357        O  0.31741356  0.06504646  0.28718321    -0.90500
O358        O  0.32447605  0.07330375  0.34259007    -0.83600
C359        C  0.33178666  0.08614402  0.31092291     1.11500
O360        O  0.20559110  0.20102168  0.34118335    -0.96700
Zr361      Zr  0.24226837  0.13755893  0.36274911     1.88900
O362        O  0.31661171  0.12420172  0.41046009    -0.73300
O363        O  0.25984082  0.08644007  0.26489348    -0.52600
O364        O  0.26099304  0.18718670  0.31067720    -0.97300
O365        O  0.22156008  0.20911952  0.40385791    -0.54500
O366        O  0.28714836  0.18775167  0.38405082    -0.73800
C367        C  0.30974860  0.17608425  0.40111202     0.98500
O368        O  0.34131373  0.98101739  0.40728936    -0.62700
O369        O  0.23379844  0.94081710  0.47478808    -0.57500
O370        O  0.29149619  0.04996485  0.45504843    -0.94200
O371        O  0.24517255  0.07779592  0.46719775    -0.92600
O372        O  0.23682733  0.81695031  0.41477272    -0.92900
O373        O  0.29332800  0.82504295  0.39153533    -0.91700
C374        C  0.27082682  0.07145853  0.47485107     1.17300
H375        H  0.20410126  0.90436493  0.40074224     0.33300
H376        H  0.30889139  0.93768271  0.34471542     0.44100
H377        H  0.26034468  0.12097262  0.42138955     0.37700
H378        H  0.22025466  0.08098787  0.30491784     0.34100
H379        H  0.27297588  0.78279335  0.32903949     0.25900
H380        H  0.27756228  0.10153085  0.25263380     0.31900
H381        H  0.28184184  0.19127820  0.31313872     0.37800
H382        H  0.21923677  0.79926024  0.40643392     0.32200
H383        H  0.22366590  0.90403124  0.46905237     0.31100
H384        H  0.18935845  0.10693920  0.46287316     0.32800
H385        H  0.23817582  0.22871457  0.41339558     0.31800
H386        H  0.30076775  0.85024670  0.40959574     0.35800
H387        H  0.34230844  0.98734428  0.43220941     0.28500
H388        H  0.15554943  0.04664345  0.30553549     0.32700
H389        H  0.19254944  0.17342672  0.33025607     0.35600
H390        H  0.25435910  0.93091579  0.47081822     0.28200
H391        H  0.33687713  0.93840479  0.40508114     0.41100
H392        H  0.30615975  0.90958658  0.28098688     0.31100
H393        H  0.27240697  0.83585115  0.30348241     0.38700
H394        H  0.21298668  0.18469962  0.42293528     0.30600
H395        H  0.24936856  0.06406824  0.24824288     0.30600
H396        H  0.15391522  0.07935495  0.34087424     0.30900
N397        N  0.32801160  0.25315419  0.19119895    -0.03600
C398        C  0.32652002  0.19942259  0.17513159    -0.01000
C399        C  0.34475686  0.19889605  0.14636313    -0.23900
C400        C  0.34694051  0.25647514  0.13746486    -0.24100
C401        C  0.33385149  0.28984062  0.16367004    -0.01100
H402        H  0.34684655  0.16332568  0.12770922     0.12700
H403        H  0.35103257  0.26727414  0.11131323     0.12700
N404        N  0.33048051  0.26067833  0.43406688    -0.03600
C405        C  0.33181217  0.22281281  0.40670257    -0.01000
C406        C  0.34343314  0.25238130  0.37795878    -0.23900
C407        C  0.34699824  0.30951124  0.38683609    -0.24100
C408        C  0.33017796  0.31351809  0.41686108    -0.01100
H409        H  0.34077694  0.24119162  0.35163269     0.12700
H410        H  0.34955610  0.34424553  0.36769123     0.12700
Zr411      Zr  0.01904090  0.57722993  0.16182444     2.17500
O412        O  0.49324352  0.65987827  0.19389632    -0.51400
O413        O  0.06040166  0.59207690  0.19270539    -0.74700
O414        O  0.02641469  0.51832627  0.21535459    -0.81400
O415        O  0.05302095  0.64295228  0.07001403    -0.83200
O416        O  0.48377750  0.47337407  0.22249101    -0.78800
O417        O  0.04889344  0.65689416  0.12762840    -0.90400
O418        O  0.08938840  0.53043604  0.15981163    -0.76400
O419        O  0.03226370  0.47684411  0.16980563    -0.85900
O420        O  0.04933685  0.55016671  0.11304829    -0.85600
O421        O  0.47297294  0.52080554  0.16514429    -0.72300
O422        O  0.48746259  0.59060342  0.11434475    -0.84500
Zr423      Zr  0.49147082  0.40296643  0.07580089     2.26400
Zr424      Zr  0.48860467  0.41881652  0.17151404     2.06300
Zr425      Zr  0.02026345  0.56283538  0.06595406     2.10000
Zr426      Zr  0.06405320  0.45366923  0.12372001     1.78800
O427        O  0.47903840  0.62386297  0.05098917    -0.93300
O428        O  0.08726001  0.39710993  0.16695084    -0.41100
O429        O  0.03579810  0.46181606  0.07388071    -0.77700
O430        O  0.02190170  0.38925596  0.12344061    -0.96400
O431        O  0.46132467  0.42997192  0.12340544    -0.89700
O432        O  0.47698633  0.50390500  0.06757559    -0.92600
C433        C  0.08518765  0.57521490  0.18128426     1.01200
C434        C  0.05969096  0.67046468  0.09639737     1.14100
C435        C  0.00956946  0.48116924  0.23200874     1.04900
O436        O  0.02779389  0.34832087  0.18623512    -0.94700
O437        O  0.44917425  0.35442920  0.16750903    -0.90500
O438        O  0.45630724  0.33545510  0.11067736    -0.83600
C439        C  0.44309276  0.32631512  0.14109018     1.11500
O440        O  0.41807502  0.61029535  0.13841134    -0.96700
Zr441      Zr  0.44545030  0.52613365  0.11495879     1.88900
O442        O  0.44798077  0.38652670  0.04857347    -0.73300
O443        O  0.46699911  0.35228289  0.21544249    -0.52600
O444        O  0.40978443  0.49264932  0.15906707    -0.97300
O445        O  0.41848852  0.58398465  0.07549709    -0.54500
O446        O  0.41950850  0.44999252  0.08089798    -0.73800
C447        C  0.42336938  0.40599780  0.05926803     0.98500
O448        O  0.01424325  0.31420414  0.04989386    -0.62700
O449        O  0.03524646  0.61665799  0.01334787    -0.57500
O450        O  0.49469865  0.44339228  0.01692796    -0.94200
O451        O  0.03298650  0.49475135  0.02216150    -0.92600
O452        O  0.10309419  0.47991243  0.08202655    -0.92900
O453        O  0.08942673  0.36577318  0.10187272    -0.91700
C454        C  0.01139585  0.48254258  0.00612153     1.17300
H455        H  0.06791824  0.56782643  0.10914374     0.33300
H456        H  0.02747421  0.34813384  0.12424968     0.44100
H457        H  0.46617082  0.51045567  0.04781072     0.37700
H458        H  0.46043263  0.53422835  0.18427251     0.34100
H459        H  0.10785322  0.40730847  0.16321553     0.25900
H460        H  0.48266084  0.33245267  0.22671498     0.31900
H461        H  0.40647601  0.45046478  0.15372377     0.37800
H462        H  0.09374593  0.48770171  0.06055921     0.32200
H463        H  0.03018924  0.65896677  0.01661140     0.31100
H464        H  0.48364715  0.66445482  0.05841109     0.32800
H465        H  0.39886551  0.56721526  0.07789329     0.31800
H466        H  0.07972041  0.35483590  0.08110175     0.35800
H467        H  0.00355992  0.30733078  0.02930233     0.28500
H468        H  0.01028111  0.67504738  0.20722044     0.32700
H469        H  0.43256940  0.64163373  0.14100732     0.35600
H470        H  0.05643745  0.61517369  0.01037845     0.28200
H471        H  0.03344849  0.32761537  0.04073225     0.41100
H472        H  0.03464020  0.36265133  0.20807222     0.31100
H473        H  0.08107068  0.41646076  0.18894576     0.38700
H474        H  0.42591052  0.57201103  0.05221651     0.30600
H475        H  0.45784994  0.37820285  0.23329983     0.30600
H476        H  0.47984969  0.64009739  0.21100691     0.30900
Zr477      Zr  0.49309776  0.39196762  0.33500409     2.17500
O478        O  0.01022239  0.29308183  0.32072043    -0.51400
O479        O  0.44919356  0.37567887  0.30518966    -0.74700
O480        O  0.46235987  0.33169767  0.37557435    -0.81400
O481        O  0.04207588  0.45308237  0.27257146    -0.83200
O482        O  0.44023946  0.39261439  0.41479384    -0.78800
O483        O  0.50146883  0.40362309  0.27234536    -0.90400
O484        O  0.42774477  0.46603155  0.31095969    -0.76400
O485        O  0.45963997  0.44390215  0.37192401    -0.85900
O486        O  0.48708523  0.48973423  0.31282967    -0.85600
O487        O  0.01424241  0.39625021  0.38938150    -0.72300
O488        O  0.04005912  0.43577449  0.33472260    -0.84500
Zr489      Zr  0.02074276  0.59066503  0.40100992     2.26400
Zr490      Zr  0.48087267  0.44835806  0.42528208     2.06300
Zr491      Zr  0.03397674  0.53216330  0.31075681     2.10000
Zr492      Zr  0.45297734  0.53765137  0.34904292     1.78800
O493        O  0.07626731  0.52592972  0.27070485    -0.93300
O494        O  0.41049636  0.52587120  0.38826839    -0.41100
O495        O  0.49942289  0.58664755  0.34752714    -0.77700
O496        O  0.47405342  0.54708801  0.40362723    -0.96400
O497        O  0.02488405  0.49378008  0.42257763    -0.89700
O498        O  0.05515916  0.53936073  0.36438948    -0.92600
C499        C  0.42933326  0.41233848  0.29823903     1.01200
C500        C  0.01971689  0.44042837  0.25829408     1.14100
C501        C  0.44154438  0.34513902  0.39791364     1.04900
O502        O  0.44680771  0.43874204  0.47516562    -0.94700
O503        O  0.47878913  0.51997372  0.46888696    -0.90500
O504        O  0.02106918  0.55342604  0.46074843    -0.83600
C505        C  0.00131135  0.52613113  0.47910263     1.11500
O506        O  0.08190632  0.34893285  0.38037859    -0.96700
Zr507      Zr  0.06062252  0.44650075  0.38959770     1.88900
O508        O  0.06309859  0.61288657  0.43140422    -0.73300
O509        O  0.99512253  0.36904512  0.45989806    -0.52600
O510        O  0.07227805  0.39152085  0.44022624    -0.97300
O511        O  0.10675575  0.46202270  0.35810975    -0.54500
O512        O  0.08316119  0.52100560  0.42904911    -0.73800
C513        C  0.08213793  0.57598800  0.44013492     0.98500
O514        O  0.49926880  0.68095369  0.42286003    -0.62700
O515        O  0.51061626  0.60017845  0.27146740    -0.57500
O516        O  0.05002489  0.65440073  0.36088613    -0.94200
O517        O  0.06456313  0.61290807  0.30959418    -0.92600
O518        O  0.44187153  0.59642780  0.29948699    -0.92900
O519        O  0.42929554  0.63332741  0.35576880    -0.91700
C520        C  0.06604238  0.65185998  0.33230311     1.17300
H521        H  0.47858283  0.49184442  0.29120599     0.33300
H522        H  0.46117645  0.56993219  0.41886380     0.44100
H523        H  0.07400304  0.55698540  0.36315323     0.37700
H524        H  0.01640520  0.35614685  0.39730375     0.34100
H525        H  0.41583182  0.49657400  0.40548468     0.25900
H526        H  0.98973983  0.33198289  0.44847969     0.31900
H527        H  0.06510338  0.41651183  0.45978001     0.37800
H528        H  0.44620090  0.57056184  0.27936590     0.32200
H529        H  0.00406080  0.63114450  0.28489598     0.31100
H530        H  0.07311056  0.55510381  0.25255744     0.32800
H531        H  0.10870364  0.42936323  0.34124998     0.31800
H532        H  0.43917594  0.65319585  0.37416095     0.35800
H533        H  0.51549897  0.70906668  0.42307291     0.28500
H534        H  0.99652201  0.27752019  0.30476675     0.32700
H535        H  0.07118725  0.33130975  0.36196572     0.35600
H536        H  0.52659409  0.62221176  0.25935926     0.28200
H537        H  0.48803516  0.69484894  0.40389993     0.41100
H538        H  0.42936410  0.46025079  0.46924847     0.31100
H539        H  0.40840649  0.56332364  0.40132439     0.38700
H540        H  0.12095522  0.45301225  0.37497782     0.30600
H541        H  0.01631769  0.37026389  0.45752894     0.30600
H542        H  0.00619712  0.26982942  0.34196937     0.30900
N543        N  0.12982094  0.63500018  0.20037120    -0.03600
C544        C  0.10696772  0.62404938  0.18035932    -0.01000
C545        C  0.11428694  0.63663259  0.14697995    -0.23900
C546        C  0.14200169  0.64615935  0.14400157    -0.24100
C547        C  0.15206719  0.63219613  0.17514757    -0.01100
H548        H  0.10293071  0.62420225  0.12517300     0.12700
H549        H  0.15294978  0.64152092  0.11914131     0.12700
N550        N  0.12456281  0.63801828  0.45795182    -0.03600
C551        C  0.10341138  0.59637616  0.46582923    -0.01000
C552        C  0.11520798  0.55033265  0.48340723    -0.23900
C553        C  0.14421969  0.55480781  0.47698656    -0.24100
C554        C  0.14904730  0.60410273  0.45647824    -0.01100
H555        H  0.10446525  0.50936241  0.49090204     0.12700
H556        H  0.15887226  0.51803142  0.47903797     0.12700
Zr557      Zr  0.31123274  0.48843309  0.13446976     2.17500
O558        O  0.35432955  0.54207461  0.14711308    -0.51400
O559        O  0.32670508  0.39192610  0.15326469    -0.74700
O560        O  0.30735908  0.47582086  0.19718981    -0.81400
O561        O  0.32796949  0.46385928  0.03160090    -0.83200
O562        O  0.26293099  0.43775863  0.20293855    -0.78800
O563        O  0.34631387  0.46119539  0.08371989    -0.90400
O564        O  0.29050269  0.32967747  0.14065104    -0.76400
O565        O  0.26808336  0.44019888  0.15481878    -0.85900
O566        O  0.29132758  0.43835501  0.08959523    -0.85600
O567        O  0.27722058  0.56272140  0.15752404    -0.72300
O568        O  0.30093668  0.56849904  0.09672494    -0.84500
Zr569      Zr  0.20893149  0.53207050  0.08740911     2.26400
Zr570      Zr  0.23344966  0.51034365  0.17652143     2.06300
Zr571      Zr  0.28428560  0.51477033  0.04936260     2.10000
Zr572      Zr  0.25158728  0.38396331  0.11100445     1.78800
O573        O  0.32231207  0.56969967  0.01753322    -0.93300
O574        O  0.22631414  0.32392594  0.15516526    -0.41100
O575        O  0.24247790  0.45774414  0.06786255    -0.77700
O576        O  0.21583304  0.45700312  0.12918564    -0.96400
O577        O  0.22409679  0.58193896  0.13488992    -0.89700
O578        O  0.25060391  0.58722705  0.07173138    -0.92600
C579        C  0.31512769  0.34041532  0.15329125     1.01200
C580        C  0.34520078  0.44207718  0.05195124     1.14100
C581        C  0.28641784  0.45153994  0.21535507     1.04900
O582        O  0.19532252  0.44951299  0.20421901    -0.94700
O583        O  0.18888918  0.56343080  0.19444332    -0.90500
O584        O  0.18312761  0.57264028  0.13897746    -0.83600
C585        C  0.17511003  0.58532373  0.17042790     1.11500
O586        O  0.30052363  0.70379994  0.13936987    -0.96700
Zr587      Zr  0.26399954  0.63896757  0.11836415     1.88900
O588        O  0.19027346  0.62365425  0.06932331    -0.73300
O589        O  0.24656025  0.58716574  0.21553454    -0.52600
O590        O  0.24524328  0.68756846  0.17078113    -0.97300
O591        O  0.28407475  0.71297200  0.07809830    -0.54500
O592        O  0.21887517  0.68763714  0.09673012    -0.73800
C593        C  0.19663355  0.67543554  0.07912755     0.98500
O594        O  0.16512848  0.48182051  0.07409468    -0.62700
O595        O  0.27163374  0.44276475  0.00644344    -0.57500
O596        O  0.21472803  0.55124757  0.02568608    -0.94200
O597        O  0.26088733  0.57981506  0.01324249    -0.92600
O598        O  0.27049740  0.31887409  0.06513917    -0.92900
O599        O  0.21348490  0.32672569  0.08754443    -0.91700
C600        C  0.23519766  0.57314590  0.00572499     1.17300
H601        H  0.30218322  0.40626493  0.07964160     0.33300
H602        H  0.19777556  0.43798130  0.13580488     0.44100
H603        H  0.24608942  0.62241635  0.05936667     0.37700
H604        H  0.28633136  0.58175057  0.17597105     0.34100
H605        H  0.23206644  0.28271104  0.14952169     0.25900
H606        H  0.22880870  0.60274764  0.22749178     0.31900
H607        H  0.22425485  0.68984322  0.16889939     0.37800
H608        H  0.28877918  0.30332931  0.07280761     0.32200
H609        H  0.28020095  0.40498557  0.01346669     0.31100
H610        H  0.31786321  0.61181905  0.02244138     0.32800
H611        H  0.26936846  0.71908003  0.06145504     0.31800
H612        H  0.20868968  0.34898234  0.06692646     0.35800
H613        H  0.15962710  0.50115705  0.05282348     0.28500
H614        H  0.34977492  0.55943448  0.17008047     0.32700
H615        H  0.31888790  0.68319342  0.13333591     0.35600
H616        H  0.25071195  0.43595980  0.00933223     0.28200
H617        H  0.17148709  0.44170600  0.06674540     0.41100
H618        H  0.20169025  0.40818390  0.20018119     0.31100
H619        H  0.23597797  0.33283462  0.17626706     0.38700
H620        H  0.29992465  0.69227491  0.06489880     0.30600
H621        H  0.25683680  0.56503675  0.23243535     0.30600
H622        H  0.35490373  0.57639114  0.13133474     0.30900
Zr623      Zr  0.27345489  0.40239883  0.33309549     2.17500
O624        O  0.25250654  0.30730881  0.32098488    -0.51400
O625        O  0.32081102  0.38335883  0.30602929    -0.74700
O626        O  0.27733442  0.40690250  0.27009443    -0.81400
O627        O  0.29351043  0.38233124  0.43105291    -0.83200
O628        O  0.28712022  0.50374702  0.26511741    -0.78800
O629        O  0.29447770  0.33998618  0.37819836    -0.90400
O630        O  0.34069216  0.47520841  0.30929832    -0.76400
O631        O  0.28801862  0.49674079  0.31213115    -0.85900
O632        O  0.29901275  0.45386032  0.37339478    -0.85600
O633        O  0.23046363  0.45598387  0.31997095    -0.72300
O634        O  0.23686979  0.41397283  0.37854287    -0.84500
Zr635      Zr  0.23604443  0.61071746  0.38722845     2.26400
Zr636      Zr  0.24753331  0.55058219  0.29812254     2.06300
Zr637      Zr  0.26367879  0.46366579  0.41932925     2.10000
Zr638      Zr  0.31444886  0.54523593  0.35095497     1.78800
O639        O  0.24000860  0.38127812  0.44990137    -0.93300
O640        O  0.33800789  0.60886249  0.30725632    -0.41100
O641        O  0.27951058  0.55884997  0.39886168    -0.77700
O642        O  0.27198532  0.60213469  0.34059853    -0.96400
O643        O  0.21212322  0.56303689  0.34424976    -0.89700
O644        O  0.22162932  0.51535686  0.40692157    -0.92600
C645        C  0.34050141  0.42109256  0.29745026     1.01200
C646        C  0.30300008  0.34419448  0.40932170     1.14100
C647        C  0.28528976  0.45248802  0.25204464     1.04900
O648        O  0.26849709  0.63934044  0.27054229    -0.94700
O649        O  0.21563797  0.63146457  0.29010799    -0.90500
O650        O  0.21302650  0.67081835  0.34391840    -0.83600
C651        C  0.20557838  0.66834159  0.31250454     1.11500
O652        O  0.16938262  0.39104112  0.34171127    -0.96700
Zr653      Zr  0.19474137  0.47276757  0.36669369     1.88900
O654        O  0.18941835  0.62814697  0.41773582    -0.73300
O655        O  0.21671885  0.51038604  0.25619820    -0.52600
O656        O  0.16026881  0.50752003  0.32741092    -0.97300
O657        O  0.17144192  0.40583743  0.40884804    -0.54500
O658        O  0.16565256  0.54200590  0.40790329    -0.73800
C659        C  0.16830111  0.59247530  0.42410073     0.98500
O660        O  0.25689019  0.70637419  0.39859744    -0.62700
O661        O  0.29897290  0.49953971  0.45739610    -0.57500
O662        O  0.23331863  0.60776222  0.44991951    -0.94200
O663        O  0.23799225  0.51047502  0.46440411    -0.92600
O664        O  0.35172133  0.51368789  0.38722711    -0.92900
O665        O  0.33951713  0.62674906  0.37657261    -0.91700
C666        C  0.23205062  0.56395183  0.47103871     1.17300
H667        H  0.31648544  0.43465984  0.37872098     0.33300
H668        H  0.27759389  0.64127567  0.33280475     0.44100
H669        H  0.20755193  0.51400281  0.42583330     0.37700
H670        H  0.22141245  0.43301424  0.30301390     0.34100
H671        H  0.35874098  0.60453949  0.31040506     0.25900
H672        H  0.22471747  0.47067342  0.25102258     0.31900
H673        H  0.15362275  0.54633584  0.33665967     0.37800
H674        H  0.36181886  0.48143874  0.37415362     0.32200
H675        H  0.31780611  0.49188631  0.44499958     0.31100
H676        H  0.22095073  0.39675712  0.45819080     0.32800
H677        H  0.17388697  0.42483153  0.43124358     0.31800
H678        H  0.32633600  0.66089881  0.37549464     0.35800
H679        H  0.26520274  0.70154380  0.42099498     0.28500
H680        H  0.23470975  0.31725042  0.30995203     0.32700
H681        H  0.18245282  0.35671663  0.34290014     0.35600
H682        H  0.29714141  0.54318114  0.45758717     0.28200
H683        H  0.27373850  0.70944889  0.38189418     0.41100
H684        H  0.28922218  0.63053675  0.26679316     0.31100
H685        H  0.33534637  0.58833660  0.28536123     0.38700
H686        H  0.18405804  0.37060700  0.40866116     0.30600
H687        H  0.19790789  0.50335214  0.26879676     0.30600
H688        H  0.24572611  0.29217222  0.34389127     0.30900
C689        C  0.12439634  0.80903079  0.97729616     0.86400
C690        C  0.09901213  0.80017636  0.50657565    -0.53900
C691        C  0.10029159  0.75126497  0.52862795     0.09300
C692        C  0.12701312  0.71086024  0.51695186     0.20200
C693        C  0.15190780  0.80487506  0.99740655    -0.54600
C694        C  0.15348118  0.75486318  0.51973336     0.09400
C695        C  0.12403418  0.74956997  0.95725644    -0.54100
C696        C  0.12564015  0.69840481  0.97583984     0.10000
H697        H  0.08333229  0.83500652  0.51133656     0.14500
H698        H  0.12840917  0.67058098  0.53297642     0.00200
H699        H  0.16724075  0.84100457  0.99701544     0.14800
H700        H  0.12272963  0.74741236  0.92981370     0.14600
C701        C  0.12796607  0.69029670  0.72322161     0.86400
C702        C  0.15610665  0.70065148  0.74095315    -0.53900
C703        C  0.15708945  0.74982705  0.76202722     0.09300
C704        C  0.12840116  0.78749149  0.76171379     0.20200
C705        C  0.10436721  0.69282795  0.75345657    -0.54600
C706        C  0.10429713  0.74220815  0.77488557     0.09400
C707        C  0.12398686  0.74922646  0.70333378    -0.54100
C708        C  0.12364707  0.80059352  0.72218049     0.10000
H709        H  0.17306756  0.66773083  0.73956586     0.14500
H710        H  0.12866137  0.82809188  0.77764013     0.00200
H711        H  0.09015085  0.65573532  0.75875827     0.14800
H712        H  0.12278241  0.75070311  0.67594783     0.14600
C713        C  0.38121119  0.30949918  0.50374371     0.86400
C714        C  0.40650061  0.30209017  0.97425606    -0.53900
C715        C  0.40525105  0.25345593  0.95207404     0.09300
C716        C  0.37851903  0.21281662  0.96363094     0.20200
C717        C  0.35439765  0.30483363  0.98238280    -0.54600
C718        C  0.35201806  0.25671064  0.96097214     0.09400
C719        C  0.38099495  0.25009321  0.52381815    -0.54100
C720        C  0.38085033  0.19850233  0.00412781     0.10000
H721        H  0.42207735  0.33717521  0.96949812     0.14500
H722        H  0.37712451  0.17265828  0.94750575     0.00200
H723        H  0.33897364  0.34078885  0.98265476     0.14800
H724        H  0.38210184  0.24793326  0.55129172     0.14600
C725        C  0.37732480  0.19244594  0.75815571     0.86400
C726        C  0.34919659  0.20226263  0.74031062    -0.53900
C727        C  0.34824309  0.25081157  0.71874708     0.09300
C728        C  0.37685415  0.28892886  0.71901540     0.20200
C729        C  0.40094222  0.19462639  0.72792066    -0.54600
C730        C  0.40100723  0.24369428  0.70624996     0.09400
C731        C  0.38132204  0.25175223  0.77766228    -0.54100
C732        C  0.38174663  0.30278589  0.75847891     0.10000
H733        H  0.33231269  0.16916191  0.74182143     0.14500
H734        H  0.37654078  0.32919362  0.70280640     0.00200
H735        H  0.41527628  0.15768085  0.72290837     0.14800
H736        H  0.38276989  0.25362741  0.80501904     0.14600
N737        N  0.08561730  0.75450634  0.56422959    -0.03600
C738        C  0.08200231  0.71463919  0.59134248    -0.01000
C739        C  0.09019934  0.74099254  0.62093115    -0.23900
C740        C  0.09763371  0.79707079  0.61349732    -0.24100
C741        C  0.08889164  0.80605754  0.58124060    -0.01100
H742        H  0.08391624  0.72754438  0.64686407     0.12700
H743        H  0.09914780  0.83079801  0.63295501     0.12700
N744        N  0.08890937  0.74080720  0.80998146    -0.03600
C745        C  0.08622192  0.78373076  0.83511740    -0.01000
C746        C  0.09366643  0.76050965  0.86591476    -0.23900
C747        C  0.10037930  0.70351069  0.86106609    -0.24100
C748        C  0.09131555  0.69122748  0.82927681    -0.01100
H749        H  0.08699328  0.77662581  0.89116540     0.12700
H750        H  0.10125955  0.67231974  0.88204582     0.12700
N751        N  0.38169479  0.36654897  0.52635787    -0.03600
C752        C  0.39796433  0.36744730  0.55453438    -0.01000
C753        C  0.38079939  0.35410055  0.58349165    -0.23900
C754        C  0.35380040  0.34985674  0.57384629    -0.24100
C755        C  0.35553505  0.37924920  0.54357380    -0.01100
H756        H  0.38582939  0.36076412  0.60977824     0.12700
H757        H  0.33567605  0.35084413  0.59209704     0.12700
N758        N  0.38452602  0.36244116  0.77500763    -0.03600
C759        C  0.40918743  0.39601500  0.76869829    -0.01000
C760        C  0.40327389  0.44183616  0.74680052    -0.23900
C761        C  0.37413295  0.44699011  0.74817307    -0.24100
C762        C  0.36339491  0.40267204  0.76973209    -0.01100
H763        H  0.41776595  0.47756182  0.73901744     0.12700
H764        H  0.36288921  0.48677919  0.74146399     0.12700
N765        N  0.17428502  0.75713190  0.54734650    -0.03600
C766        C  0.17256128  0.71900520  0.57452664    -0.01000
C767        C  0.16122593  0.74841144  0.60341061    -0.23900
C768        C  0.15837574  0.80582510  0.59489424    -0.24100
C769        C  0.17494064  0.80980976  0.56469036    -0.01100
H770        H  0.16386947  0.73675158  0.62965484     0.12700
H771        H  0.15624715  0.84025847  0.61424217     0.12700
N772        N  0.17789584  0.75184248  0.78937789    -0.03600
C773        C  0.17205888  0.78936501  0.81652928    -0.01000
C774        C  0.15816869  0.75709915  0.84263758    -0.23900
C775        C  0.16028542  0.69922126  0.83441344    -0.24100
C776        C  0.17890766  0.69853712  0.80596583    -0.01100
H777        H  0.15358258  0.76872453  0.86853419     0.12700
H778        H  0.15766466  0.66424410  0.85337898     0.12700
N779        N  0.37975930  0.14010587  0.52360857    -0.03600
C780        C  0.40142030  0.09924200  0.51638994    -0.01000
C781        C  0.39050309  0.05318383  0.49798272    -0.23900
C782        C  0.36135111  0.05683962  0.50301446    -0.24100
C783        C  0.35559197  0.10553192  0.52372756    -0.01100
H784        H  0.40172952  0.01268974  0.49064172     0.12700
H785        H  0.34705306  0.01974430  0.50003676     0.12700
N786        N  0.37698292  0.13561638  0.78052821    -0.03600
C787        C  0.40010893  0.12631061  0.80030168    -0.01000
C788        C  0.39291116  0.13913835  0.83367202    -0.23900
C789        C  0.36506089  0.14626956  0.83700588    -0.24100
C790        C  0.35487704  0.13211635  0.80595432    -0.01100
H791        H  0.40460459  0.12760374  0.85536335     0.12700
H792        H  0.35440775  0.14094929  0.86199723     0.12700
N793        N  0.41690743  0.24251014  0.67149348    -0.03600
C794        C  0.41910443  0.28508689  0.64616396    -0.01000
C795        C  0.41145223  0.26121967  0.61560476    -0.23900
C796        C  0.40567922  0.20382530  0.62073424    -0.24100
C797        C  0.41518063  0.19259548  0.65242545    -0.01100
H798        H  0.41770134  0.27725932  0.59022844     0.12700
H799        H  0.40508084  0.17225804  0.59991001     0.12700
N800        N  0.41961018  0.25772815  0.91638497    -0.03600
C801        C  0.42407700  0.21809779  0.88932895    -0.01000
C802        C  0.41625016  0.24416968  0.85946575    -0.23900
C803        C  0.40782463  0.29971796  0.86684798    -0.24100
C804        C  0.41596268  0.30921515  0.89936935    -0.01100
H805        H  0.42281513  0.23066693  0.83359441     0.12700
H806        H  0.40612973  0.33336484  0.84736031     0.12700
Zr807      Zr  0.01316105  0.89207492  0.64644709     2.17500
O808        O  0.49275479  0.79668493  0.65998040    -0.51400
O809        O  0.05674730  0.87524409  0.67642077    -0.74700
O810        O  0.04318287  0.83176365  0.60539204    -0.81400
O811        O  0.46427183  0.95590954  0.70830633    -0.83200
O812        O  0.06706097  0.89397300  0.56841561    -0.78800
O813        O  0.00398413  0.90248678  0.70904695    -0.90400
O814        O  0.07813863  0.96580851  0.67165433    -0.76400
O815        O  0.04717051  0.94526637  0.61080509    -0.85900
O816        O  0.01831783  0.98954643  0.66935023    -0.85600
O817        O  0.49086687  0.89826159  0.59204628    -0.72300
O818        O  0.46549173  0.93864465  0.64696997    -0.84500
Zr819      Zr  0.48516678  0.09335265  0.58005179     2.26400
Zr820      Zr  0.02688290  0.95009895  0.55689339     2.06300
Zr821      Zr  0.47261160  0.03524037  0.67026447     2.10000
Zr822      Zr  0.05285918  0.03885682  0.63447374     1.78800
O823        O  0.43180365  0.03738841  0.71228587    -0.93300
O824        O  0.09598511  0.02983150  0.59631435    -0.41100
O825        O  0.00610135  0.08662566  0.63506557    -0.77700
O826        O  0.03278465  0.04833924  0.57932552    -0.96400
O827        O  0.48061957  0.99606251  0.55947145    -0.89700
O828        O  0.45101010  0.04203371  0.61684411    -0.92600
C829        C  0.07655489  0.91166435  0.68374839     1.01200
C830        C  0.98615997  0.94014513  0.72292572     1.14100
C831        C  0.06466865  0.84537044  0.58410001     1.04900
O832        O  0.06311222  0.94547675  0.50900324    -0.94700
O833        O  0.02828070  0.02186542  0.51324321    -0.90500
O834        O  0.48381242  0.05479315  0.52060870    -0.83600
C835        C  0.00379551  0.02715320  0.50236597     1.11500
O836        O  0.42243053  0.85188374  0.59947409    -0.96700
Zr837      Zr  0.44466390  0.94907804  0.59218965     1.88900
O838        O  0.44200329  0.11570572  0.55072459    -0.73300
O839        O  0.51179831  0.86835854  0.52202725    -0.52600
O840        O  0.43530538  0.89560374  0.54014613    -0.97300
O841        O  0.39901556  0.96224244  0.62527943    -0.54500
O842        O  0.42138546  0.02423494  0.55372036    -0.73800
C843        C  0.42256425  0.07914551  0.54246960     0.98500
O844        O  0.00869354  0.18054204  0.55870125    -0.62700
O845        O  0.99289780  0.09781729  0.71124314    -0.57500
O846        O  0.45674683  0.15789600  0.62079740    -0.94200
O847        O  0.44035145  0.11297019  0.67037677    -0.92600
O848        O  0.06514521  0.09353716  0.68516325    -0.92900
O849        O  0.07470146  0.13659698  0.62837726    -0.91700
C850        C  0.43973480  0.15355428  0.64852383     1.17300
H851        H  0.02650275  0.99137657  0.69116593     0.33300
H852        H  0.04585123  0.07130808  0.56439288     0.44100
H853        H  0.43214658  0.05951886  0.61792324     0.37700
H854        H  0.48859237  0.85819627  0.58412091     0.34100
H855        H  0.09189264  0.99794461  0.58004634     0.25900
H856        H  0.01706699  0.83137884  0.53376465     0.31900
H857        H  0.44301444  0.92144545  0.52123337     0.37800
H858        H  0.05550942  0.07244648  0.70494942     0.32200
H859        H  0.00555390  0.12489572  0.69722038     0.31100
H860        H  0.43800205  0.06354540  0.73052184     0.32800
H861        H  0.39847921  0.93119066  0.64316455     0.31800
H862        H  0.06592890  0.15445090  0.60851591     0.35800
H863        H  0.02405270  0.16615032  0.54202297     0.28500
H864        H  0.01062835  0.77037592  0.66502341     0.32700
H865        H  0.43428830  0.83095507  0.61562192     0.35600
H866        H  0.97684298  0.12326795  0.72022935     0.28200
H867        H  0.99450605  0.19896969  0.54439204     0.41100
H868        H  0.07934116  0.96964163  0.51614196     0.31100
H869        H  0.09683614  0.06612298  0.58211196     0.38700
H870        H  0.38451054  0.94985283  0.60948321     0.30600
H871        H  0.49060829  0.86731890  0.52458905     0.30600
H872        H  0.48413796  0.78400876  0.63878215     0.30900
Zr873      Zr  0.48854311  0.07940182  0.81915439     2.17500
O874        O  0.01258927  0.15608890  0.78571316    -0.51400
O875        O  0.44695944  0.09608661  0.78919026    -0.74700
O876        O  0.48061006  0.02098494  0.76557307    -0.81400
O877        O  0.45405713  0.14510842  0.91076114    -0.83200
O878        O  0.02072072  0.97365238  0.75855080    -0.78800
O879        O  0.45924514  0.16010573  0.85326817    -0.90400
O880        O  0.41768807  0.03271303  0.82065712    -0.76400
O881        O  0.47465222  0.97921834  0.81164031    -0.85900
O882        O  0.45812736  0.05318630  0.86774780    -0.85600
O883        O  0.03182681  0.02068763  0.81520222    -0.72300
O884        O  0.01799050  0.09053498  0.86566977    -0.84500
Zr885      Zr  0.01446071  0.90429254  0.90505036     2.26400
Zr886      Zr  0.01613355  0.91876059  0.80935776     2.06300
Zr887      Zr  0.48724942  0.06579867  0.91474017     2.10000
Zr888      Zr  0.44262119  0.95707227  0.85769885     1.78800
O889        O  0.02758706  0.12546635  0.92953552    -0.93300
O890        O  0.42085617  0.89582392  0.81533035    -0.41100
O891        O  0.47105274  0.96504888  0.90738519    -0.77700
O892        O  0.48415513  0.89101802  0.85868264    -0.96400
O893        O  0.04408299  0.93039692  0.85679814    -0.89700
O894        O  0.02927713  0.00513813  0.91265202    -0.92600
C895        C  0.42211016  0.07809212  0.79970450     1.01200
C896        C  0.44794370  0.17322231  0.88434918     1.14100
C897        C  0.99600954  0.98174563  0.74905388     1.04900
O898        O  0.47844574  0.84887926  0.79668007    -0.94700
O899        O  0.05489834  0.85202532  0.81207800    -0.90500
O900        O  0.04959718  0.83815359  0.86945626    -0.83600
C901        C  0.06197905  0.82650500  0.83892361     1.11500
O902        O  0.08592522  0.11321069  0.84163029    -0.96700
Zr903      Zr  0.06016676  0.02657054  0.86468856     1.88900
O904        O  0.05775723  0.88808552  0.93254854    -0.73300
O905        O  0.03822866  0.85328690  0.76527217    -0.52600
O906        O  0.09666063  0.99520465  0.82095530    -0.97300
O907        O  0.08695451  0.08429177  0.90435786    -0.54500
O908        O  0.08596995  0.94933157  0.89842534    -0.73800
C909        C  0.08231113  0.90636843  0.92086537     0.98500
O910        O  0.49171881  0.81610618  0.93226311    -0.62700
O911        O  0.47380324  0.12266701  0.96677792    -0.57500
O912        O  0.01277351  0.94304742  0.96402402    -0.94200
O913        O  0.47348567  0.99976178  0.95919915    -0.92600
O914        O  0.40285896  0.98874232  0.89695552    -0.92900
O915        O  0.41435183  0.87609908  0.88365497    -0.91700
C916        C  0.99629838  0.98536092  0.97503885     1.17300
H917        H  0.43949147  0.07138419  0.87125492     0.33300
H918        H  0.47827493  0.85005327  0.85817903     0.44100
H919        H  0.04033385  0.01156460  0.93221935     0.37700
H920        H  0.04418792  0.03423125  0.79593991     0.34100
H921        H  0.40006265  0.90428661  0.81874546     0.25900
H922        H  0.02255643  0.83281636  0.75435242     0.31900
H923        H  0.09759649  0.95161238  0.82327646     0.37800
H924        H  0.41190631  0.00160662  0.91784056     0.32200
H925        H  0.47791575  0.16509113  0.96227092     0.31100
H926        H  0.02258127  0.16617276  0.92271377     0.32800
H927        H  0.10723731  0.07291076  0.89895882     0.31800
H928        H  0.42846628  0.85087516  0.89450100     0.35800
H929        H  0.50374850  0.80641782  0.95132596     0.28500
H930        H  0.99841348  0.17107274  0.77020795     0.32700
H931        H  0.07209350  0.14625037  0.84505225     0.35600
H932        H  0.45273141  0.11962543  0.97128333     0.28200
H933        H  0.47349992  0.83074609  0.94369278     0.41100
H934        H  0.47172762  0.86290153  0.77470218     0.31100
H935        H  0.42672133  0.91456773  0.79305628     0.38700
H936        H  0.08215642  0.06700692  0.92727805     0.30600
H937        H  0.04697225  0.87953045  0.74730052     0.30600
H938        H  0.02694496  0.13474364  0.77049475     0.30900
N939        N  0.12134751  0.85997104  0.70525581    -0.03600
C940        C  0.09671753  0.89356319  0.71125061     0.01400
C941        C  0.10246314  0.93967069  0.73301096    -0.23900
C942        C  0.13157976  0.94467271  0.73206273    -0.24100
C943        C  0.14248147  0.90022693  0.71069393    -0.01100
H944        H  0.08794361  0.97555452  0.74042022     0.12700
H945        H  0.14275800  0.98453107  0.73879798     0.12700
N946        N  0.12361433  0.86628277  0.95481181    -0.03600
C947        C  0.10708912  0.86666140  0.92694713    -0.01000
C948        C  0.12399957  0.85320706  0.89783806    -0.23900
C949        C  0.15116194  0.85009226  0.90703013    -0.24100
C950        C  0.14939473  0.88033648  0.93703924    -0.01100
H951        H  0.11871648  0.86014144  0.87165933     0.12700
H952        H  0.16899909  0.85188301  0.88836054     0.12700
Zr953      Zr  0.23222541  0.90004297  0.64712850     2.17500
O954        O  0.25295928  0.80501363  0.65994279    -0.51400
O955        O  0.18482964  0.88077563  0.67435465    -0.74700
O956        O  0.22989526  0.90516816  0.71017653    -0.81400
O957        O  0.21119841  0.87925972  0.54997778    -0.83200
O958        O  0.21913546  0.00142084  0.71501210    -0.78800
O959        O  0.21119797  0.83640925  0.60260806    -0.90400
O960        O  0.16467364  0.97239755  0.67172014    -0.76400
O961        O  0.21798875  0.99417547  0.66856552    -0.85900
O962        O  0.20573797  0.95165806  0.60761811    -0.85600
O963        O  0.27529922  0.95412781  0.65944845    -0.72300
O964        O  0.26818394  0.91252973  0.60090501    -0.84500
Zr965      Zr  0.26827283  0.10956874  0.59313434     2.26400
Zr966      Zr  0.25849396  0.04854586  0.68200687     2.06300
Zr967      Zr  0.24044544  0.96218723  0.56094322     2.10000
Zr968      Zr  0.19084678  0.04332092  0.63089069     1.78800
O969        O  0.26244937  0.88028538  0.52824815    -0.93300
O970        O  0.16846698  0.10143856  0.67797070    -0.41100
O971        O  0.22482295  0.05711847  0.58219594    -0.77700
O972        O  0.23326008  0.10055062  0.64048899    -0.96400
O973        O  0.29306918  0.06176337  0.63516486    -0.89700
O974        O  0.28263655  0.01438368  0.57290575    -0.92600
C975        C  0.16511890  0.91826621  0.68333371     1.01200
C976        C  0.20219931  0.84070459  0.57173987     1.14100
C977        C  0.22173400  0.95055750  0.72826130     1.04900
O978        O  0.23753373  0.13667734  0.71035246    -0.94700
O979        O  0.29050702  0.12934005  0.68994187    -0.90500
O980        O  0.29333774  0.16743354  0.63584429    -0.83600
C981        C  0.30080841  0.16553358  0.66729672     1.11500
O982        O  0.33578585  0.88825869  0.63503674    -0.96700
Zr983      Zr  0.31034637  0.97186172  0.61226018     1.88900
O984        O  0.31421905  0.12720590  0.56124981    -0.73300
O985        O  0.28993421  0.00782004  0.72309946    -0.52600
O986        O  0.34386416  0.00624900  0.65286186    -0.97300
O987        O  0.33531720  0.91038527  0.56845049    -0.54500
O988        O  0.33898403  0.04261862  0.57176732    -0.73800
C989        C  0.33584618  0.09268639  0.55540251     0.98500
O990        O  0.24649886  0.20479568  0.58257227    -0.62700
O991        O  0.20441550  0.99830809  0.52374957    -0.57500
O992        O  0.26902590  0.10714306  0.53087124    -0.94200
O993        O  0.26606636  0.00963907  0.51597287    -0.92600
O994        O  0.15433943  0.02091131  0.59167066    -0.92900
O995        O  0.16597719  0.13204543  0.61387428    -0.91700
C996        C  0.27108871  0.06365001  0.50965460     1.17300
H997        H  0.18828843  0.93209089  0.60246641     0.33300
H998        H  0.22767880  0.13955623  0.64853241     0.44100
H999        H  0.29677478  0.01379669  0.55401914     0.37700
H1000       H  0.28469726  0.93109569  0.67609032     0.34100
H1001       H  0.14765806  0.09361930  0.67738235     0.25900
H1002       H  0.28218160  0.96789838  0.72826544     0.31900
H1003       H  0.34887245  0.04722604  0.64571918     0.37800
H1004       H  0.14579209  0.98307448  0.60009650     0.32200
H1005       H  0.18579786  0.98457694  0.53454186     0.31100
H1006       H  0.28271070  0.89224177  0.52344405     0.32800
H1007       H  0.33535983  0.93369667  0.54703010     0.31800
H1008       H  0.17804247  0.14760045  0.59406411     0.35800
H1009       H  0.23926278  0.20100190  0.55950685     0.28500
H1010       H  0.27091212  0.81500486  0.67063499     0.32700
H1011       H  0.32199971  0.85499103  0.63485639     0.35600
H1012       H  0.20389103  0.04189225  0.52620687     0.28200
H1013       H  0.22894314  0.20566224  0.59827129     0.41100
H1014       H  0.21757116  0.12550000  0.71771896     0.31100
H1015       H  0.17386880  0.08107260  0.69895708     0.38700
H1016       H  0.32197401  0.87725504  0.56494479     0.30600
H1017       H  0.30861915  0.00123012  0.71014896     0.30600
H1018       H  0.25944208  0.78932011  0.63707972     0.30900
Zr1019     Zr  0.19510617  0.98767279  0.84573314     2.17500
O1020       O  0.15329726  0.04250486  0.82959052    -0.51400
O1021       O  0.17931302  0.89125530  0.82731561    -0.74700
O1022       O  0.20017066  0.97473449  0.78306019    -0.81400
O1023       O  0.17779939  0.96387817  0.94875628    -0.83200
O1024       O  0.24461274  0.93640277  0.77712332    -0.78800
O1025       O  0.15949726  0.96222110  0.89661969    -0.90400
O1026       O  0.21566641  0.82902557  0.83949056    -0.76400
O1027       O  0.23840314  0.93943017  0.82588003    -0.85900
O1028       O  0.21462529  0.93774742  0.89094170    -0.85600
O1029       O  0.22965195  0.06085188  0.82281725    -0.72300
O1030       O  0.20513702  0.06789329  0.88344935    -0.84500
Zr1031     Zr  0.29726846  0.03162582  0.89342564     2.26400
Zr1032     Zr  0.27356708  0.00878058  0.80425827     2.06300
Zr1033     Zr  0.22158082  0.01439931  0.93103145     2.10000
Zr1034     Zr  0.25444432  0.88321409  0.86984612     1.78800
O1035       O  0.18295636  0.06697544  0.96316720    -0.93300
O1036       O  0.28153170  0.82590425  0.82585619    -0.41100
O1037       O  0.26341167  0.95758325  0.91269582    -0.77700
O1038       O  0.29073216  0.95567588  0.85195369    -0.96400
O1039       O  0.28248101  0.08098108  0.84561972    -0.89700
O1040       O  0.25545304  0.08681946  0.90872523    -0.92600
C1041       C  0.19093960  0.83977911  0.82700932     1.01200
C1042       C  0.16049145  0.94262424  0.92834515     1.14100
C1043       C  0.22103666  0.95016317  0.76490249     1.04900
O1044       O  0.31193429  0.94951122  0.77581515    -0.94700
O1045       O  0.31795862  0.06318986  0.78685376    -0.90500
O1046       O  0.32382550  0.07282374  0.84235659    -0.83600
C1047       C  0.33176016  0.08529183  0.81081535     1.11500
O1048       O  0.20611059  0.20070478  0.83850922    -0.96700
Zr1049     Zr  0.24233446  0.13767639  0.86162026     1.88900
O1050       O  0.31610835  0.12346883  0.91103201    -0.73300
O1051       O  0.26032545  0.08416299  0.76451013    -0.52600
O1052       O  0.26056162  0.18435461  0.80839659    -0.97300
O1053       O  0.22085403  0.21202770  0.90058544    -0.54500
O1054       O  0.28745699  0.18683616  0.88323388    -0.73800
C1055       C  0.30972991  0.17508223  0.90092276     0.98500
O1056       O  0.34026416  0.98045776  0.90899243    -0.62700
O1057       O  0.23393826  0.94282766  0.97440544    -0.57500
O1058       O  0.29068263  0.05188603  0.95486931    -0.94200
O1059       O  0.24443632  0.08003677  0.96722530    -0.92600
O1060       O  0.23488225  0.81733288  0.91498500    -0.92900
O1061       O  0.29059994  0.82569110  0.89681963    -0.91700
C1062       C  0.27013780  0.07359182  0.97476180     1.17300
H1063       H  0.20361948  0.90591152  0.90095824     0.33300
H1064       H  0.30879837  0.93649237  0.84559144     0.44100
H1065       H  0.25983693  0.12225918  0.92097480     0.37700
H1066       H  0.22072855  0.07973812  0.80418840     0.34100
H1067       H  0.27625793  0.78422390  0.83086961     0.25900
H1068       H  0.27807794  0.09952874  0.75245209     0.31900
H1069       H  0.28150881  0.18785216  0.81026666     0.37800
H1070       H  0.21745835  0.79982642  0.90612742     0.32200
H1071       H  0.22426528  0.90564442  0.96840445     0.31100
H1072       H  0.17819618  0.10030865  0.94816939     0.32800
H1073       H  0.23695912  0.23786242  0.90624191     0.31800
H1074       H  0.29997120  0.85447915  0.91147134     0.35800
H1075       H  0.34416796  0.99717358  0.93158187     0.28500
H1076       H  0.16026473  0.06552260  0.80912685     0.32700
H1077       H  0.18833944  0.17671165  0.84057261     0.35600
H1078       H  0.25463321  0.93384416  0.97094427     0.28200
H1079       H  0.33385170  0.93945773  0.91413660     0.41100
H1080       H  0.30587434  0.90791520  0.77949486     0.31100
H1081       H  0.27222629  0.83487446  0.80451583     0.38700
H1082       H  0.21551452  0.19021055  0.92203752     0.30600
H1083       H  0.25012539  0.06142233  0.74779885     0.30600
H1084       H  0.14992607  0.07259417  0.84782899     0.30900
N1085       N  0.32777862  0.25119474  0.69097343    -0.03600
C1086       C  0.32731525  0.19763636  0.67461162    -0.01000
C1087       C  0.34600119  0.19847325  0.64624520    -0.23900
C1088       C  0.34719937  0.25617523  0.63747869    -0.24100
C1089       C  0.33316201  0.28829098  0.66356245    -0.01100
H1090       H  0.34891770  0.16317137  0.62751189     0.12700
H1091       H  0.35115479  0.26719336  0.61135574     0.12700
N1092       N  0.33113953  0.25915965  0.93344873    -0.03600
C1093       C  0.33214853  0.22098279  0.90624050    -0.01000
C1094       C  0.34357107  0.24988857  0.87722868    -0.23900
C1095       C  0.34719625  0.30710733  0.88569921    -0.24100
C1096       C  0.33091735  0.31175735  0.91608509    -0.01100
H1097       H  0.34050082  0.23824624  0.85105756     0.12700
H1098       H  0.34947135  0.34148641  0.86632576     0.12700
Zr1099     Zr  0.01741112  0.57587991  0.66304488     2.17500
O1100       O  0.49368196  0.66047900  0.69428949    -0.51400
O1101       O  0.05878679  0.59357520  0.69295373    -0.74700
O1102       O  0.02630010  0.51496417  0.71563633    -0.81400
O1103       O  0.05102910  0.64286754  0.57079461    -0.83200
O1104       O  0.48453802  0.47446385  0.72250827    -0.78800
O1105       O  0.04712114  0.65654351  0.62847264    -0.90400
O1106       O  0.08756540  0.53069008  0.66051187    -0.76400
O1107       O  0.03151374  0.47571729  0.66981258    -0.85900
O1108       O  0.04710886  0.55100292  0.61369208    -0.85600
O1109       O  0.47395520  0.52167957  0.66561462    -0.72300
O1110       O  0.48800480  0.59186835  0.61481023    -0.84500
Zr1111     Zr  0.49158023  0.40446910  0.57643034     2.26400
Zr1112     Zr  0.48965508  0.41956668  0.67181034     2.06300
Zr1113     Zr  0.01746085  0.56440293  0.56732493     2.10000
Zr1114     Zr  0.06294429  0.45525768  0.62303467     1.78800
O1115       O  0.47982207  0.62537367  0.54935058    -0.93300
O1116       O  0.08553263  0.39489088  0.66502862    -0.41100
O1117       O  0.03407881  0.46400662  0.57383074    -0.77700
O1118       O  0.02172083  0.38848921  0.62244586    -0.96400
O1119       O  0.46191643  0.43129088  0.62429946    -0.89700
O1120       O  0.47715498  0.50553418  0.56818918    -0.92600
C1121       C  0.08347489  0.57566240  0.68183517     1.01200
C1122       C  0.05792867  0.67013904  0.59713714     1.14100
C1123       C  0.00999505  0.47694963  0.73246543     1.04900
O1124       O  0.02812005  0.34465372  0.68478162    -0.94700
O1125       O  0.45068763  0.35331357  0.66859524    -0.90500
O1126       O  0.45602201  0.33815404  0.61130308    -0.83600
C1127       C  0.44351541  0.32744286  0.64188220     1.11500
O1128       O  0.41933097  0.61041212  0.64221718    -0.96700
Zr1129     Zr  0.44592300  0.52738218  0.61594812     1.88900
O1130       O  0.44771623  0.38688211  0.54982065    -0.73300
O1131       O  0.46859884  0.35222220  0.71563291    -0.52600
O1132       O  0.40955342  0.49280208  0.65893219    -0.97300
O1133       O  0.42002218  0.58874382  0.57716357    -0.54500
O1134       O  0.41956418  0.45042030  0.58252749    -0.73800
C1135       C  0.42312918  0.40642241  0.56075489     0.98500
O1136       O  0.01579297  0.31613348  0.54911269    -0.62700
O1137       O  0.03089064  0.61944233  0.51469597    -0.57500
O1138       O  0.49455491  0.44317423  0.51755042    -0.94200
O1139       O  0.03078002  0.49867467  0.52255459    -0.92600
O1140       O  0.10261687  0.48968369  0.58450690    -0.92900
O1141       O  0.09059957  0.37618458  0.59432439    -0.91700
C1142       C  0.00946662  0.48557768  0.50627722     1.17300
H1143       H  0.06580941  0.56860392  0.60998752     0.33300
H1144       H  0.02786318  0.34767589  0.62269806     0.44100
H1145       H  0.46625652  0.51182076  0.54846201     0.37700
H1146       H  0.46146195  0.53523113  0.68475483     0.34100
H1147       H  0.10631850  0.40248873  0.66045365     0.25900
H1148       H  0.48448472  0.33128156  0.72586195     0.31900
H1149       H  0.40994747  0.44908816  0.65713951     0.37800
H1150       H  0.09353167  0.51075888  0.56591406     0.32200
H1151       H  0.02650798  0.66184420  0.51884039     0.31100
H1152       H  0.48479222  0.66631766  0.55574460     0.32800
H1153       H  0.39975611  0.57618420  0.58114388     0.31800
H1154       H  0.07743181  0.35886113  0.57830611     0.35800
H1155       H  0.00597907  0.30910775  0.52788648     0.28500
H1156       H  0.00705363  0.66983884  0.71081448     0.32700
H1157       H  0.43282993  0.64421224  0.63999546     0.35600
H1158       H  0.05200279  0.61691054  0.51050620     0.28200
H1159       H  0.03498933  0.33112867  0.54097145     0.41100
H1160       H  0.03565372  0.35982368  0.70607462     0.31100
H1161       H  0.08058711  0.41476324  0.68721770     0.38700
H1162       H  0.42579946  0.57415854  0.55385363     0.30600
H1163       H  0.46010256  0.37760347  0.73417820     0.30600
H1164       H  0.48389243  0.64088055  0.71451065     0.30900
Zr1165     Zr  0.49253682  0.39384368  0.83432057     2.17500
O1166       O  0.01182347  0.29288492  0.82127008    -0.51400
O1167       O  0.44906103  0.37784673  0.80384517    -0.74700
O1168       O  0.46181352  0.33513696  0.87567767    -0.81400
O1169       O  0.04258585  0.45101765  0.77369890    -0.83200
O1170       O  0.43740106  0.39818861  0.91161743    -0.78800
O1171       O  0.50226962  0.40390550  0.77175123    -0.90400
O1172       O  0.42821862  0.46900613  0.80799073    -0.76400
O1173       O  0.45831357  0.44780299  0.86941006    -0.85900
O1174       O  0.48814805  0.49156825  0.81161586    -0.85600
O1175       O  0.01539642  0.39530212  0.88991800    -0.72300
O1176       O  0.04106074  0.43508625  0.83536368    -0.84500
Zr1177     Zr  0.02165933  0.59054094  0.90140421     2.26400
Zr1178     Zr  0.47811803  0.45228504  0.92365742     2.06300
Zr1179     Zr  0.03510336  0.53153615  0.81127066     2.10000
Zr1180     Zr  0.45362168  0.54168789  0.84580040     1.78800
O1181       O  0.07722721  0.53126856  0.77102260    -0.93300
O1182       O  0.40973937  0.53632600  0.88270166    -0.41100
O1183       O  0.50054632  0.58852575  0.84620007    -0.77700
O1184       O  0.47311057  0.55091721  0.90144909    -0.96400
O1185       O  0.02585709  0.49368920  0.92272631    -0.89700
O1186       O  0.05596100  0.53869470  0.86516811    -0.92600
C1187       C  0.42951217  0.41458697  0.79611891     1.01200
C1188       C  0.02041625  0.43740325  0.75916260     1.14100
C1189       C  0.44003091  0.34908253  0.89648648     1.04900
O1190       O  0.44274997  0.45162751  0.97256346    -0.94700
O1191       O  0.47821642  0.52135615  0.96866238    -0.90500
O1192       O  0.02247102  0.55147174  0.96092013    -0.83600
C1193       C  0.00289930  0.52409739  0.97960185     1.11500
O1194       O  0.08431886  0.34943443  0.88221871    -0.96700
Zr1195     Zr  0.06162575  0.44598903  0.89032468     1.88900
O1196       O  0.06460335  0.61379325  0.93055631    -0.73300
O1197       O  0.99600166  0.36674125  0.95941898    -0.52600
O1198       O  0.07087120  0.39232996  0.94233702    -0.97300
O1199       O  0.10764973  0.46158395  0.85873783    -0.54500
O1200       O  0.08438447  0.52156218  0.92911776    -0.73800
C1201       C  0.08357261  0.57694345  0.93960484     0.98500
O1202       O  0.49935554  0.68361273  0.92274447    -0.62700
O1203       O  0.51224634  0.59902135  0.77114327    -0.57500
O1204       O  0.04972621  0.65534912  0.86041810    -0.94200
O1205       O  0.06767785  0.60883754  0.81201917    -0.92600
O1206       O  0.44264953  0.59745252  0.79503812    -0.92900
O1207       O  0.43432972  0.64159850  0.85094737    -0.91700
C1208       C  0.06735554  0.65058744  0.83324551     1.17300
H1209       H  0.47999268  0.49375065  0.78981130     0.33300
H1210       H  0.46012493  0.57397869  0.91643255     0.44100
H1211       H  0.07479377  0.55628644  0.86443664     0.37700
H1212       H  0.01762925  0.35512520  0.89766187     0.34100
H1213       H  0.41252923  0.50260074  0.89824422     0.25900
H1214       H  0.99035226  0.33011789  0.94774048     0.31900
H1215       H  0.09082650  0.40282068  0.94682998     0.37800
H1216       H  0.44734256  0.57072195  0.77539571     0.32200
H1217       H  0.99827739  0.61648479  0.78224816     0.31100
H1218       H  0.07161507  0.55497764  0.75140228     0.32800
H1219       H  0.10852008  0.43174384  0.84017648     0.31800
H1220       H  0.44952061  0.66463356  0.86130485     0.35800
H1221       H  0.48022572  0.68432733  0.91341015     0.28500
H1222       H  0.99476186  0.27047189  0.81499109     0.32700
H1223       H  0.07613894  0.33304657  0.86157449     0.35600
H1224       H  0.52834391  0.62065071  0.75899714     0.28200
H1225       H  0.49532703  0.67630649  0.94756658     0.41100
H1226       H  0.42616654  0.47425217  0.96504192     0.31100
H1227       H  0.40998905  0.57153998  0.89772447     0.38700
H1228       H  0.12186156  0.44820045  0.87464931     0.30600
H1229       H  0.01720184  0.36734730  0.95709543     0.30600
H1230       H  0.01652427  0.27569464  0.84345486     0.30900
N1231       N  0.12844813  0.63309548  0.70120908    -0.03600
C1232       C  0.10561413  0.62345345  0.68105305    -0.01000
C1233       C  0.11315450  0.63592608  0.64771176    -0.23900
C1234       C  0.14097079  0.64385409  0.64494617    -0.24100
C1235       C  0.15077568  0.62942318  0.67612635    -0.01100
H1236       H  0.10172499  0.62411898  0.62581242     0.12700
H1237       H  0.15192766  0.63880389  0.62020313     0.12700
N1238       N  0.12599166  0.63953343  0.95743296    -0.03600
C1239       C  0.10485756  0.59782877  0.96520606    -0.01000
C1240       C  0.11641756  0.55267518  0.98369465    -0.23900
C1241       C  0.14550978  0.55770691  0.97829605    -0.24100
C1242       C  0.15054915  0.60602205  0.95705254    -0.01100
H1243       H  0.10566271  0.51188809  0.99150031     0.12700
H1244       H  0.16025602  0.52145485  0.98144612     0.12700
Zr1245     Zr  0.30937472  0.48536756  0.63396199     2.17500
O1246       O  0.35264131  0.53606373  0.64913569    -0.51400
O1247       O  0.32516730  0.38940569  0.65260344    -0.74700
O1248       O  0.30516959  0.47410524  0.69685730    -0.81400
O1249       O  0.32490880  0.45865020  0.53129120    -0.83200
O1250       O  0.26063121  0.43664624  0.70473910    -0.78800
O1251       O  0.34459285  0.46216497  0.58257493    -0.90400
O1252       O  0.28907304  0.32624090  0.64091315    -0.76400
O1253       O  0.26642864  0.43714655  0.65502304    -0.85900
O1254       O  0.28926070  0.43416743  0.58949755    -0.85600
O1255       O  0.27568882  0.55986801  0.65691977    -0.72300
O1256       O  0.29896629  0.56474602  0.59581846    -0.84500
Zr1257     Zr  0.20639555  0.52822800  0.58791738     2.26400
Zr1258     Zr  0.23195152  0.50788912  0.67656520     2.06300
Zr1259     Zr  0.28148261  0.51021890  0.54915897     2.10000
Zr1260     Zr  0.24960165  0.38008946  0.61168940     1.78800
O1261       O  0.32067502  0.56205086  0.51763642    -0.93300
O1262       O  0.22497572  0.31958685  0.65618062    -0.41100
O1263       O  0.23986027  0.45343992  0.56855660    -0.77700
O1264       O  0.21389122  0.45345255  0.62990159    -0.96400
O1265       O  0.22214977  0.57913530  0.63484185    -0.89700
O1266       O  0.24802036  0.58294736  0.57175311    -0.92600
C1267       C  0.31382291  0.33775457  0.65312228     1.01200
C1268       C  0.34326017  0.44058172  0.55139750     1.14100
C1269       C  0.28464137  0.45017893  0.71588879     1.04900
O1270       O  0.19384707  0.44929482  0.70592663    -0.94700
O1271       O  0.18759613  0.56069619  0.69541507    -0.90500
O1272       O  0.18141634  0.56869858  0.64008521    -0.83600
C1273       C  0.17355475  0.58197729  0.67149247     1.11500
O1274       O  0.29772287  0.70326169  0.63812445    -0.96700
Zr1275     Zr  0.26227516  0.63535737  0.61763807     1.88900
O1276       O  0.18746450  0.62056763  0.57097375    -0.73300
O1277       O  0.24567554  0.58451061  0.71526074    -0.52600
O1278       O  0.24539755  0.68322189  0.67094197    -0.97300
O1279       O  0.28225167  0.70749536  0.57610618    -0.54500
O1280       O  0.21714968  0.68448302  0.59687714    -0.73800
C1281       C  0.19448783  0.67247184  0.58006189     0.98500
O1282       O  0.16282343  0.47743636  0.57414159    -0.62700
O1283       O  0.26751525  0.44072024  0.50559584    -0.57500
O1284       O  0.21199100  0.54851554  0.52602523    -0.94200
O1285       O  0.25823804  0.57666544  0.51359751    -0.92600
O1286       O  0.26741766  0.31608676  0.56482842    -0.92900
O1287       O  0.21172370  0.32199930  0.58826129    -0.91700
C1288       C  0.23245752  0.57081003  0.50611410     1.17300
H1289       H  0.30035342  0.40242065  0.57946923     0.33300
H1290       H  0.19594536  0.43445931  0.63707981     0.44100
H1291       H  0.24320153  0.61832124  0.55974592     0.37700
H1292       H  0.28498676  0.57919848  0.67512050     0.34100
H1293       H  0.23281431  0.27924682  0.65222291     0.25900
H1294       H  0.22807856  0.59943025  0.72786771     0.31900
H1295       H  0.22421821  0.68290847  0.67088188     0.37800
H1296       H  0.28480570  0.29716103  0.57291548     0.32200
H1297       H  0.27629574  0.40255686  0.51156051     0.31100
H1298       H  0.31965819  0.60298945  0.52664670     0.32800
H1299       H  0.26649532  0.73587482  0.57304186     0.31800
H1300       H  0.19471732  0.34822481  0.58998072     0.35800
H1301       H  0.16773787  0.45924774  0.55145996     0.28500
H1302       H  0.35091809  0.53844433  0.67445619     0.32700
H1303       H  0.31485527  0.67842440  0.64085208     0.35600
H1304       H  0.24663667  0.43386609  0.50936599     0.28200
H1305       H  0.16109802  0.44353080  0.59017824     0.41100
H1306       H  0.20026879  0.40773091  0.70320114     0.31100
H1307       H  0.23303409  0.33255523  0.67766247     0.38700
H1308       H  0.28457721  0.68579312  0.55411228     0.30600
H1309       H  0.25647216  0.56221525  0.73165369     0.30600
H1310       H  0.35017137  0.57737603  0.64143659     0.30900
Zr1311     Zr  0.27397089  0.40139713  0.83369629     2.17500
O1312       O  0.25336831  0.30692275  0.81930617    -0.51400
O1313       O  0.32113801  0.38292211  0.80592511    -0.74700
O1314       O  0.27672481  0.40549038  0.77073282    -0.81400
O1315       O  0.29524635  0.38220869  0.93080219    -0.83200
O1316       O  0.28781064  0.50151907  0.76569080    -0.78800
O1317       O  0.29433950  0.33786966  0.87868805    -0.90400
O1318       O  0.34156062  0.47426512  0.80925590    -0.76400
O1319       O  0.28865839  0.49537100  0.81224697    -0.85900
O1320       O  0.30021103  0.45309910  0.87336700    -0.85600
O1321       O  0.23113620  0.45556804  0.82102005    -0.72300
O1322       O  0.23746869  0.41292262  0.87948904    -0.84500
Zr1323     Zr  0.23764462  0.61032477  0.88706786     2.26400
Zr1324     Zr  0.24827363  0.54962876  0.79812794     2.06300
Zr1325     Zr  0.26499954  0.46308216  0.91960680     2.10000
Zr1326     Zr  0.31541436  0.54472584  0.85031063     1.78800
O1327       O  0.24235874  0.38200345  0.95251872    -0.93300
O1328       O  0.33737718  0.60490193  0.80387378    -0.41100
O1329       O  0.28088291  0.55783245  0.89847128    -0.77700
O1330       O  0.27311180  0.60186164  0.83998483    -0.96400
O1331       O  0.21336436  0.56242758  0.84467016    -0.89700
O1332       O  0.22305865  0.51534369  0.90735210    -0.92600
C1333       C  0.34091926  0.42041948  0.79724054     1.01200
C1334       C  0.30381486  0.34300482  0.90926059     1.14100
C1335       C  0.28492744  0.45065694  0.75249755     1.04900
O1336       O  0.26840827  0.63779487  0.76890138    -0.94700
O1337       O  0.21581474  0.63010740  0.79025475    -0.90500
O1338       O  0.21317980  0.66869231  0.84421002    -0.83600
C1339       C  0.20558109  0.66656111  0.81286097     1.11500
O1340       O  0.16936365  0.39317172  0.84206551    -0.96700
Zr1341     Zr  0.19555505  0.47293850  0.86774499     1.88900
O1342       O  0.19143074  0.62767863  0.91858389    -0.73300
O1343       O  0.21697815  0.50752395  0.75740146    -0.52600
O1344       O  0.16157344  0.51070107  0.82869729    -0.97300
O1345       O  0.17026132  0.40949979  0.91032775    -0.54500
O1346       O  0.16690342  0.54241307  0.90904217    -0.73800
C1347       C  0.16998289  0.59286495  0.92504415     0.98500
O1348       O  0.25884506  0.70574771  0.89838293    -0.62700
O1349       O  0.30002867  0.50146365  0.95727820    -0.57500
O1350       O  0.23644720  0.60829978  0.94942535    -0.94200
O1351       O  0.23980233  0.51103001  0.96465589    -0.92600
O1352       O  0.35237230  0.51948249  0.88844525    -0.92900
O1353       O  0.34033998  0.63132854  0.87046653    -0.91700
C1354       C  0.23471661  0.56504309  0.97085106     1.17300
H1355       H  0.31767369  0.43363204  0.87852827     0.33300
H1356       H  0.27868801  0.64082642  0.83183565     0.44100
H1357       H  0.20912590  0.51461290  0.92642459     0.37700
H1358       H  0.22189232  0.43207497  0.80446793     0.34100
H1359       H  0.35813064  0.59595288  0.80362338     0.25900
H1360       H  0.22454516  0.46732930  0.75272382     0.31900
H1361       H  0.15758472  0.55196638  0.83610762     0.37800
H1362       H  0.36129743  0.48301197  0.87852625     0.32200
H1363       H  0.31889368  0.49497855  0.94473109     0.31100
H1364       H  0.22162294  0.39136286  0.95387017     0.32800
H1365       H  0.17344254  0.42803231  0.93266097     0.31800
H1366       H  0.32480100  0.65872286  0.87867762     0.35800
H1367       H  0.27216929  0.69750127  0.91636421     0.28500
H1368       H  0.23347737  0.31663486  0.81413751     0.32700
H1369       H  0.18131034  0.35749689  0.84469883     0.35600
H1370       H  0.29757266  0.54496877  0.95765628     0.28200
H1371       H  0.27157611  0.71407652  0.87766939     0.41100
H1372       H  0.28885933  0.62845212  0.76316285     0.31100
H1373       H  0.33127350  0.58604374  0.78276206     0.38700
H1374       H  0.18158488  0.37245179  0.91015500     0.30600
H1375       H  0.19823964  0.50166930  0.77038944     0.30600
H1376       H  0.25121869  0.28581077  0.84150133     0.30900
C1377       C  0.62476186  0.80842219  0.47778981     0.86400
C1378       C  0.59938505  0.79998794  0.00665037    -0.53900
C1379       C  0.60078873  0.75130656  0.02872908     0.09300
C1380       C  0.62772567  0.71127942  0.01729245     0.20200
C1381       C  0.65198798  0.80457328  0.49838301    -0.54600
C1382       C  0.65389496  0.75575918  0.02057043     0.09400
C1383       C  0.62470409  0.74890325  0.45784410    -0.54100
C1384       C  0.62603534  0.69787843  0.47655787     0.10000
H1385       H  0.58354299  0.83446773  0.01133499     0.14500
H1386       H  0.62914888  0.67100895  0.03331436     0.00200
H1387       H  0.66726362  0.84079516  0.49820188     0.14800
H1388       H  0.62372748  0.74658842  0.43035866     0.14600
C1389       C  0.62833777  0.69069864  0.22354077     0.86400
C1390       C  0.65661267  0.70141564  0.24097182    -0.53900
C1391       C  0.65744084  0.75010181  0.26248487     0.09300
C1392       C  0.62862189  0.78754928  0.26245447     0.20200
C1393       C  0.60501032  0.69264273  0.25408925    -0.54600
C1394       C  0.60476434  0.74196027  0.27560980     0.09400
C1395       C  0.62384812  0.74975607  0.20397874    -0.54100
C1396       C  0.62344143  0.80095350  0.22303743     0.10000
H1397       H  0.67370477  0.66878915  0.23928447     0.14500
H1398       H  0.62884937  0.82798703  0.27852433     0.00200
H1399       H  0.59105896  0.65527814  0.25943071     0.14800
H1400       H  0.62220743  0.75139590  0.17665658     0.14600
C1401       C  0.88142909  0.30852467  0.00415119     0.86400
C1402       C  0.90661903  0.29939777  0.47529457    -0.53900
C1403       C  0.90513243  0.25098224  0.45297643     0.09300
C1404       C  0.87826405  0.21085410  0.46448508     0.20200
C1405       C  0.85450053  0.30328788  0.48307737    -0.54600
C1406       C  0.85199657  0.25519015  0.46167970     0.09400
C1407       C  0.88156685  0.24911509  0.02425268    -0.54100
C1408       C  0.88040926  0.19648002  0.50496876     0.10000
H1409       H  0.92243611  0.33396554  0.47067876     0.14500
H1410       H  0.87679113  0.17071908  0.44836874     0.00200
H1411       H  0.83925356  0.33955981  0.48323643     0.14800
H1412       H  0.88264133  0.24699955  0.05171317     0.14600
C1413       C  0.87798821  0.19043473  0.25732713     0.86400
C1414       C  0.85009441  0.20012378  0.23903306    -0.53900
C1415       C  0.84921769  0.24892841  0.21764243     0.09300
C1416       C  0.87760775  0.28727774  0.21844082     0.20200
C1417       C  0.90189058  0.19307056  0.22736291    -0.54600
C1418       C  0.90190326  0.24230629  0.20572514     0.09400
C1419       C  0.88167023  0.24964523  0.27706282    -0.54100
C1420       C  0.88201289  0.30088304  0.25807155     0.10000
H1421       H  0.83328221  0.16686685  0.24027027     0.14500
H1422       H  0.87732172  0.32765211  0.20232681     0.00200
H1423       H  0.91623406  0.15609572  0.22232017     0.14800
H1424       H  0.88294210  0.25134621  0.30444619     0.14600
N1425       N  0.58622630  0.75500750  0.06431356    -0.03600
C1426       C  0.58236629  0.71515597  0.09126538    -0.01000
C1427       C  0.59000771  0.74146509  0.12113617    -0.23900
C1428       C  0.59758049  0.79750139  0.11389580    -0.24100
C1429       C  0.58917322  0.80656867  0.08146374    -0.01100
H1430       H  0.58335318  0.72795274  0.14697130     0.12700
H1431       H  0.59872507  0.83112847  0.13349358     0.12700
N1432       N  0.58923034  0.74043257  0.31061285    -0.03600
C1433       C  0.58630285  0.78290927  0.33605659    -0.01000
C1434       C  0.59409415  0.75926889  0.36662680    -0.23900
C1435       C  0.60088457  0.70229821  0.36131676    -0.24100
C1436       C  0.59160921  0.69056757  0.32953678    -0.01100
H1437       H  0.58765109  0.77503955  0.39201976     0.12700
H1438       H  0.60199536  0.67063396  0.38202018     0.12700
N1439       N  0.88195155  0.36580216  0.02654911    -0.03600
C1440       C  0.89821692  0.36609715  0.05462104    -0.01000
C1441       C  0.88103015  0.35259054  0.08353992    -0.23900
C1442       C  0.85399962  0.34946905  0.07387474    -0.24100
C1443       C  0.85597294  0.37975155  0.04387830    -0.01100
H1444       H  0.88607741  0.35893963  0.10983755     0.12700
H1445       H  0.83597289  0.35071029  0.09215944     0.12700
N1446       N  0.88438722  0.36044729  0.27491188    -0.03600
C1447       C  0.90909510  0.39404223  0.26910080    -0.01000
C1448       C  0.90336468  0.44030416  0.24742331    -0.23900
C1449       C  0.87423160  0.44536505  0.24830752    -0.24100
C1450       C  0.86325773  0.40085025  0.26959119    -0.01100
H1451       H  0.91789158  0.47623503  0.24012563     0.12700
H1452       H  0.86309968  0.48533875  0.24166742     0.12700
N1453       N  0.67439459  0.75815220  0.04853056    -0.03600
C1454       C  0.67307206  0.71992702  0.07571447    -0.01000
C1455       C  0.66138944  0.74865424  0.10467428    -0.23900
C1456       C  0.65820378  0.80606155  0.09628051    -0.24100
C1457       C  0.67470397  0.81057385  0.06600982    -0.01100
H1458       H  0.66394956  0.73663834  0.13090265     0.12700
H1459       H  0.65591910  0.84036346  0.11570559     0.12700
N1460       N  0.67800688  0.75107645  0.29014605    -0.03600
C1461       C  0.67238899  0.78825516  0.31750968    -0.01000
C1462       C  0.65887151  0.75573102  0.34379100    -0.23900
C1463       C  0.66037023  0.69803827  0.33502268    -0.24100
C1464       C  0.67890789  0.69748908  0.30649444    -0.01100
H1465       H  0.65512325  0.76675509  0.36995746     0.12700
H1466       H  0.65774444  0.66272580  0.35379361     0.12700
N1467       N  0.88023500  0.13907435  0.02421500    -0.03600
C1468       C  0.90156536  0.09776677  0.01644041    -0.01000
C1469       C  0.89014156  0.05202086  0.99831225    -0.23900
C1470       C  0.86107759  0.05599669  0.00438341    -0.24100
C1471       C  0.85582202  0.10493089  0.02508823    -0.01100
H1472       H  0.90110917  0.01138854  0.99063644     0.12700
H1473       H  0.84659868  0.01906769  0.00187010     0.12700
N1474       N  0.87725342  0.13346849  0.27964048    -0.03600
C1475       C  0.90004676  0.12377689  0.29984035    -0.01000
C1476       C  0.89253343  0.13683094  0.33310457    -0.23900
C1477       C  0.86471488  0.14509228  0.33586458    -0.24100
C1478       C  0.85485007  0.13028282  0.30475561    -0.01100
H1479       H  0.90390404  0.12515437  0.35503703     0.12700
H1480       H  0.85374809  0.14049180  0.36065954     0.12700
N1481       N  0.91691541  0.24050211  0.17049209    -0.03600
C1482       C  0.91973539  0.28333324  0.14533073    -0.01000
C1483       C  0.91212633  0.26023295  0.11457483    -0.23900
C1484       C  0.90511110  0.20337989  0.11954229    -0.24100
C1485       C  0.91415580  0.19097353  0.15134589    -0.01100
H1486       H  0.91876189  0.27633932  0.08930402     0.12700
H1487       H  0.90395769  0.17211020  0.09864441     0.12700
N1488       N  0.91930028  0.25524014  0.41717336    -0.03600
C1489       C  0.92324153  0.21563735  0.38999843    -0.01000
C1490       C  0.91532490  0.24206561  0.36030757    -0.23900
C1491       C  0.90737383  0.29783252  0.36785928    -0.24100
C1492       C  0.91581250  0.30693225  0.40029999    -0.01100
H1493       H  0.92176478  0.22872245  0.33438831     0.12700
H1494       H  0.90575485  0.33162590  0.34843972     0.12700
Zr1495     Zr  0.51243322  0.89081424  0.14684957     2.17500
O1496       O  0.99423714  0.79356629  0.16092142    -0.51400
O1497       O  0.55541900  0.87511674  0.17819963    -0.74700
O1498       O  0.54345828  0.83162668  0.10610941    -0.81400
O1499       O  0.96318056  0.95310250  0.20803125    -0.83200
O1500       O  0.56660180  0.89349688  0.06824561    -0.78800
O1501       O  0.50279584  0.90011438  0.20945200    -0.90400
O1502       O  0.57758360  0.96470564  0.17179792    -0.76400
O1503       O  0.54650238  0.94380179  0.11120902    -0.85900
O1504       O  0.51772102  0.98842460  0.16951071    -0.85600
O1505       O  0.99092497  0.89545776  0.09202992    -0.72300
O1506       O  0.96523902  0.93540291  0.14615470    -0.84500
Zr1507     Zr  0.98482239  0.09109399  0.07992860     2.26400
Zr1508     Zr  0.52607406  0.94895970  0.05727168     2.06300
Zr1509     Zr  0.97076538  0.03241025  0.16976668     2.10000
Zr1510     Zr  0.55220021  0.03765749  0.13445987     1.78800
O1511       O  0.92784685  0.03018868  0.20875352    -0.93300
O1512       O  0.59487960  0.03036512  0.09526466    -0.41100
O1513       O  0.50562532  0.08592513  0.13462042    -0.77700
O1514       O  0.53210175  0.04767711  0.07926893    -0.96400
O1515       O  0.98066005  0.99381095  0.05859434    -0.89700
O1516       O  0.95017550  0.03936662  0.11571069    -0.92600
C1517       C  0.57560069  0.91115947  0.18477645     1.01200
C1518       C  0.48551357  0.93890668  0.22320866     1.14100
C1519       C  0.56465857  0.84524682  0.08434356     1.04900
O1520       O  0.56021254  0.93789012  0.00773057    -0.94700
O1521       O  0.52774058  0.02073100  0.01353859    -0.90500
O1522       O  0.98546231  0.05473232  0.01998979    -0.83600
C1523       C  0.50334892  0.02686838  0.00241872     1.11500
O1524       O  0.91793651  0.85367905  0.09736078    -0.96700
Zr1525     Zr  0.94469029  0.94622192  0.09131370     1.88900
O1526       O  0.94171520  0.11387734  0.05114054    -0.73300
O1527       O  0.01391950  0.86531871  0.02243084    -0.52600
O1528       O  0.93599424  0.89132322  0.03952724    -0.97300
O1529       O  0.90103227  0.96057600  0.12827186    -0.54500
O1530       O  0.92182260  0.02176901  0.05280166    -0.73800
C1531       C  0.92273303  0.07704934  0.04218353     0.98500
O1532       O  0.50706655  0.18142937  0.05848157    -0.62700
O1533       O  0.49331270  0.09684506  0.21071837    -0.57500
O1534       O  0.95541625  0.15455683  0.12006214    -0.94200
O1535       O  0.93813421  0.10947756  0.16921121    -0.92600
O1536       O  0.56062990  0.09575713  0.18527065    -0.92900
O1537       O  0.57662972  0.13284585  0.12986623    -0.91700
C1538       C  0.93804871  0.15035024  0.14746678     1.17300
H1539       H  0.52580442  0.99021358  0.19140363     0.33300
H1540       H  0.54516159  0.07057272  0.06428887     0.44100
H1541       H  0.93127703  0.05660831  0.11629202     0.37700
H1542       H  0.98882254  0.85543529  0.08395006     0.34100
H1543       H  0.59132460  0.99667342  0.07999124     0.25900
H1544       H  0.51515316  0.83039429  0.03466606     0.31900
H1545       H  0.94616252  0.91409405  0.02075393     0.37800
H1546       H  0.56181706  0.06661409  0.20400577     0.32200
H1547       H  0.50298639  0.12813700  0.19647330     0.31100
H1548       H  0.93301937  0.05209430  0.22925637     0.32800
H1549       H  0.90318952  0.93464006  0.14832309     0.31800
H1550       H  0.56798910  0.15313235  0.11067620     0.35800
H1551       H  0.52636842  0.18091239  0.06737853     0.28500
H1552       H  0.51298061  0.76681137  0.15937059     0.32700
H1553       H  0.93083708  0.82642243  0.10875241     0.35600
H1554       H  0.47701166  0.11756767  0.22302595     0.28200
H1555       H  0.51063918  0.17447553  0.03356157     0.41100
H1556       H  0.57680184  0.96308542  0.01253138     0.31100
H1557       H  0.59465369  0.06539538  0.08009447     0.38700
H1558       H  0.88557864  0.94223292  0.11587452     0.30600
H1559       H  0.99274075  0.86491055  0.02304574     0.30600
H1560       H  0.99060625  0.77542882  0.13860943     0.30900
Zr1561     Zr  0.98784332  0.07764399  0.31871209     2.17500
O1562       O  0.51264721  0.15486002  0.28632343    -0.51400
O1563       O  0.94675923  0.09316136  0.28780255    -0.74700
O1564       O  0.97934350  0.01821567  0.26558367    -0.81400
O1565       O  0.95296295  0.14198163  0.41087045    -0.83200
O1566       O  0.52029653  0.96912321  0.25939828    -0.78800
O1567       O  0.95824246  0.15762982  0.35345186    -0.90400
O1568       O  0.91795733  0.03103634  0.32071904    -0.76400
O1569       O  0.97437921  0.97722680  0.31138631    -0.85900
O1570       O  0.95763590  0.05143280  0.36756241    -0.85600
O1571       O  0.53119186  0.01736499  0.31633131    -0.72300
O1572       O  0.51776596  0.08939351  0.36675419    -0.84500
Zr1573     Zr  0.51371276  0.90267217  0.40629243     2.26400
Zr1574     Zr  0.51473707  0.91578428  0.31067093     2.06300
Zr1575     Zr  0.98711228  0.06479859  0.41419429     2.10000
Zr1576     Zr  0.94282538  0.95491453  0.35763606     1.78800
O1577       O  0.52490817  0.12642703  0.43424253    -0.93300
O1578       O  0.92198390  0.89612176  0.31353804    -0.41100
O1579       O  0.97139129  0.96383801  0.40716623    -0.77700
O1580       O  0.98462417  0.88990520  0.35853351    -0.96400
O1581       O  0.54287267  0.92834201  0.35782557    -0.89700
O1582       O  0.52849369  0.00369940  0.41396429    -0.92600
C1583       C  0.92205654  0.07570514  0.29915759     1.01200
C1584       C  0.94692295  0.17047658  0.38461475     1.14100
C1585       C  0.49583021  0.97941153  0.24963436     1.04900
O1586       O  0.97912356  0.84533297  0.29618488    -0.94700
O1587       O  0.55382496  0.84951107  0.31348729    -0.90500
O1588       O  0.54935485  0.83645658  0.37096985    -0.83600
C1589       C  0.56155504  0.82479859  0.34029953     1.11500
O1590       O  0.58465136  0.10858443  0.33922409    -0.96700
Zr1591     Zr  0.55951974  0.02418212  0.36578173     1.88900
O1592       O  0.55808938  0.88454673  0.43184445    -0.73300
O1593       O  0.53443116  0.84458942  0.26804025    -0.52600
O1594       O  0.59704518  0.99280560  0.32324165    -0.97300
O1595       O  0.58467977  0.08406416  0.40600566    -0.54500
O1596       O  0.58626181  0.94798946  0.39906492    -0.73800
C1597       C  0.58267587  0.90409334  0.42085098     0.98500
O1598       O  0.99139396  0.81719253  0.43208367    -0.62700
O1599       O  0.97293654  0.11959307  0.46673892    -0.57500
O1600       O  0.51102171  0.94230954  0.46515002    -0.94200
O1601       O  0.97414747  0.99907801  0.45908986    -0.92600
O1602       O  0.90339686  0.98153505  0.39862627    -0.92900
O1603       O  0.91462374  0.87240688  0.38177626    -0.91700
C1604       C  0.49437642  0.98466456  0.47576995     1.17300
H1605       H  0.93881252  0.06873539  0.37129458     0.33300
H1606       H  0.97886373  0.84885671  0.35814141     0.44100
H1607       H  0.53944866  0.01007199  0.43361953     0.37700
H1608       H  0.54367223  0.03011366  0.29698505     0.34100
H1609       H  0.90119255  0.90485382  0.31639692     0.25900
H1610       H  0.51815128  0.82596247  0.25731730     0.31900
H1611       H  0.59286622  0.95071455  0.31861617     0.37800
H1612       H  0.91269887  0.99583991  0.41902310     0.32200
H1613       H  0.97624614  0.16241801  0.46269273     0.31100
H1614       H  0.52115791  0.16606904  0.42472267     0.32800
H1615       H  0.60526320  0.07634283  0.39989621     0.31800
H1616       H  0.92729005  0.85304333  0.39764591     0.35800
H1617       H  0.99923687  0.81441882  0.45486675     0.28500
H1618       H  0.49798102  0.17163589  0.27206050     0.32700
H1619       H  0.56921965  0.13663709  0.33421740     0.35600
H1620       H  0.95193885  0.11492032  0.47117407     0.28200
H1621       H  0.97120977  0.82959245  0.43704698     0.41100
H1622       H  0.97209189  0.85886513  0.27426519     0.31100
H1623       H  0.92841394  0.91576392  0.29170815     0.38700
H1624       H  0.58101805  0.06487759  0.42861992     0.30600
H1625       H  0.54435911  0.86821521  0.24953793     0.30600
H1626       H  0.52596974  0.13328221  0.26992390     0.30900
N1627       N  0.62063233  0.86048820  0.20641430    -0.03600
C1628       C  0.59577569  0.89354247  0.21239266     0.01400
C1629       C  0.60140583  0.94039470  0.23369176    -0.23900
C1630       C  0.63050347  0.94610481  0.23250677    -0.24100
C1631       C  0.64162075  0.90118824  0.21164270    -0.01100
H1632       H  0.58675838  0.97622186  0.24080320     0.12700
H1633       H  0.64151859  0.98640013  0.23882647     0.12700
N1634       N  0.62420495  0.86534958  0.45516964    -0.03600
C1635       C  0.60786560  0.86539832  0.42711147    -0.01000
C1636       C  0.62505096  0.85218632  0.39816772    -0.23900
C1637       C  0.65213619  0.84943713  0.40767805    -0.24100
C1638       C  0.65024750  0.87898864  0.43793501    -0.01100
H1639       H  0.61990173  0.85844483  0.37189363     0.12700
H1640       H  0.67012462  0.85108698  0.38925948     0.12700
Zr1641     Zr  0.73193781  0.89998969  0.14830205     2.17500
O1642       O  0.75314805  0.80499528  0.16036615    -0.51400
O1643       O  0.68466793  0.88151724  0.17649055    -0.74700
O1644       O  0.72843254  0.90556222  0.21123150    -0.81400
O1645       O  0.71113335  0.87924615  0.05113725    -0.83200
O1646       O  0.71760137  0.00187094  0.21557001    -0.78800
O1647       O  0.71096155  0.83652854  0.10383978    -0.90400
O1648       O  0.66375767  0.97217525  0.17194737    -0.76400
O1649       O  0.71730845  0.99415736  0.16900991    -0.85900
O1650       O  0.70597308  0.95103397  0.10822502    -0.85600
O1651       O  0.77464101  0.95497559  0.16111980    -0.72300
O1652       O  0.76822631  0.91245174  0.10233212    -0.84500
Zr1653     Zr  0.76775868  0.10983045  0.09396647     2.26400
Zr1654     Zr  0.75731984  0.04950264  0.18319733     2.06300
Zr1655     Zr  0.74080938  0.96151485  0.06174580     2.10000
Zr1656     Zr  0.69023744  0.04223617  0.13082735     1.78800
O1657       O  0.76260240  0.88006702  0.02842730    -0.93300
O1658       O  0.66906926  0.10479597  0.17660581    -0.41100
O1659       O  0.72464011  0.05629789  0.08249457    -0.77700
O1660       O  0.73225558  0.10077431  0.14108088    -0.96400
O1661       O  0.79206005  0.06249538  0.13652254    -0.89700
O1662       O  0.78254359  0.01474414  0.07431644    -0.92600
C1663       C  0.66448358  0.91862862  0.18440786     1.01200
C1664       C  0.70195553  0.84106471  0.07300862     1.14100
C1665       C  0.72029426  0.95121170  0.22908712     1.04900
O1666       O  0.73643780  0.13687142  0.21259775    -0.94700
O1667       O  0.78999386  0.12967792  0.19019444    -0.90500
O1668       O  0.79184605  0.16948325  0.13651520    -0.83600
C1669       C  0.80007118  0.16617050  0.16756380     1.11500
O1670       O  0.83553007  0.88955707  0.13701218    -0.96700
Zr1671     Zr  0.80998688  0.97278258  0.11405448     1.88900
O1672       O  0.81443285  0.12707164  0.06292266    -0.73300
O1673       O  0.78960540  0.00948963  0.22369037    -0.52600
O1674       O  0.84372036  0.01038542  0.15343342    -0.97300
O1675       O  0.83505169  0.91223029  0.06992360    -0.54500
O1676       O  0.83916700  0.04250629  0.07345955    -0.73800
C1677       C  0.83613423  0.09258852  0.05708384     0.98500
O1678       O  0.74662554  0.20527225  0.08210790    -0.62700
O1679       O  0.70391327  0.99582080  0.02521243    -0.57500
O1680       O  0.76936230  0.10663064  0.03169525    -0.94200
O1681       O  0.76703114  0.00889770  0.01703515    -0.92600
O1682       O  0.65152772  0.01156709  0.09648785    -0.92900
O1683       O  0.66564934  0.12240548  0.10354107    -0.91700
C1684       C  0.77169415  0.06301552  0.01058133     1.17300
H1685       H  0.68847701  0.93169452  0.10310177     0.33300
H1686       H  0.72646042  0.13968898  0.14908666     0.44100
H1687       H  0.79692912  0.01447902  0.05573052     0.37700
H1688       H  0.78391914  0.93203714  0.17788881     0.34100
H1689       H  0.64822356  0.10396759  0.17357904     0.25900
H1690       H  0.78189522  0.96978337  0.22950692     0.31900
H1691       H  0.85349243  0.04392067  0.14119927     0.37800
H1692       H  0.64312127  0.97606902  0.10818171     0.32200
H1693       H  0.68544277  0.98648999  0.03802767     0.31100
H1694       H  0.78317231  0.89052711  0.02506447     0.32800
H1695       H  0.83049598  0.93041649  0.04794973     0.31800
H1696       H  0.68045154  0.15352402  0.09972379     0.35800
H1697       H  0.73664062  0.19890165  0.06093648     0.28500
H1698       H  0.76865855  0.81450546  0.17542730     0.32700
H1699       H  0.82038379  0.86009344  0.14333067     0.35600
H1700       H  0.70493639  0.03956773  0.02504558     0.28200
H1701       H  0.73092610  0.20995027  0.10022977     0.41100
H1702       H  0.71550339  0.12974707  0.21447198     0.31100
H1703       H  0.67113834  0.08182364  0.19783567     0.38700
H1704       H  0.82454470  0.87413947  0.07060827     0.30600
H1705       H  0.80809924  0.00255645  0.21037899     0.30600
H1706       H  0.76331699  0.79355657  0.13829648     0.30900
Zr1707     Zr  0.69585847  0.98571205  0.34720320     2.17500
O1708       O  0.65314026  0.03759251  0.33175051    -0.51400
O1709       O  0.67955645  0.88982405  0.32892737    -0.74700
O1710       O  0.69999604  0.97621371  0.28439254    -0.81400
O1711       O  0.67978181  0.96048791  0.45034820    -0.83200
O1712       O  0.74407512  0.93644426  0.27709279    -0.78800
O1713       O  0.66063644  0.96217911  0.39878608    -0.90400
O1714       O  0.71632059  0.82770851  0.33948229    -0.76400
O1715       O  0.73875504  0.93672417  0.32615789    -0.85900
O1716       O  0.71567835  0.93571000  0.39206258    -0.85600
O1717       O  0.73013855  0.05919705  0.32440324    -0.72300
O1718       O  0.70604302  0.06640069  0.38441669    -0.84500
Zr1719     Zr  0.79840764  0.02941676  0.39327022     2.26400
Zr1720     Zr  0.77363530  0.00696858  0.30460102     2.06300
Zr1721     Zr  0.72279803  0.01297473  0.43174703     2.10000
Zr1722     Zr  0.75512519  0.88085827  0.37018949     1.78800
O1723       O  0.68412891  0.06925433  0.46149702    -0.93300
O1724       O  0.78125921  0.81846537  0.32784627    -0.41100
O1725       O  0.76448793  0.95553528  0.41293036    -0.77700
O1726       O  0.79122379  0.95347422  0.35189237    -0.96400
O1727       O  0.78308933  0.07902506  0.34590411    -0.89700
O1728       O  0.75696802  0.08438816  0.40905237    -0.92600
C1729       C  0.69132575  0.83853786  0.32780456     1.01200
C1730       C  0.66189365  0.94096456  0.43008075     1.14100
C1731       C  0.72034550  0.95121504  0.26563593     1.04900
O1732       O  0.81172181  0.94683506  0.27625331    -0.94700
O1733       O  0.81784107  0.06107570  0.28597702    -0.90500
O1734       O  0.82409243  0.07019703  0.34134315    -0.83600
C1735       C  0.83189185  0.08295491  0.30977850     1.11500
O1736       O  0.70675998  0.19785353  0.33903184    -0.96700
Zr1737     Zr  0.74325358  0.13624020  0.36278295     1.88900
O1738       O  0.81746287  0.12180367  0.41013494    -0.73300
O1739       O  0.75949181  0.08298720  0.26566913    -0.52600
O1740       O  0.76156004  0.18315262  0.30975994    -0.97300
O1741       O  0.72318411  0.20639747  0.40548988    -0.54500
O1742       O  0.78837287  0.18606229  0.38356514    -0.73800
C1743       C  0.81084643  0.17376020  0.40072399     0.98500
O1744       O  0.84178420  0.97945506  0.40801293    -0.62700
O1745       O  0.73489476  0.94236741  0.47551010    -0.57500
O1746       O  0.79158645  0.04991772  0.45505387    -0.94200
O1747       O  0.74554086  0.07936316  0.46749291    -0.92600
O1748       O  0.73471810  0.81426846  0.41448400    -0.92900
O1749       O  0.79152330  0.82256786  0.39627433    -0.91700
C1750       C  0.77118949  0.07228432  0.47504162     1.17300
H1751       H  0.70473775  0.90401440  0.40229967     0.33300
H1752       H  0.80922819  0.93425070  0.34526042     0.44100
H1753       H  0.76193249  0.11962348  0.42109172     0.37700
H1754       H  0.72086336  0.07832756  0.30612780     0.34100
H1755       H  0.77387447  0.77802112  0.33271382     0.25900
H1756       H  0.77697491  0.09960076  0.25360411     0.31900
H1757       H  0.78269884  0.18232408  0.31038853     0.37800
H1758       H  0.71729672  0.79747061  0.40522625     0.32200
H1759       H  0.72637815  0.90444776  0.46861852     0.31100
H1760       H  0.68117846  0.10372720  0.44653113     0.32800
H1761       H  0.73872050  0.23530142  0.40853461     0.31800
H1762       H  0.80752524  0.85057564  0.39876714     0.35800
H1763       H  0.84951325  0.00561672  0.42544840     0.28500
H1764       H  0.66017051  0.06552668  0.31354711     0.32700
H1765       H  0.71063636  0.23878949  0.34637153     0.35600
H1766       H  0.75580611  0.93554303  0.47248646     0.28200
H1767       H  0.83477003  0.94419413  0.42109568     0.41100
H1768       H  0.80648638  0.90546635  0.28216464     0.31100
H1769       H  0.77338448  0.82910518  0.30584768     0.38700
H1770       H  0.72129159  0.18408144  0.42730166     0.30600
H1771       H  0.74927263  0.06054046  0.24883190     0.30600
H1772       H  0.64780966  0.06309915  0.35176599     0.30900
N1773       N  0.82875309  0.25007271  0.18991910    -0.03600
C1774       C  0.82726433  0.19635852  0.17397546    -0.01000
C1775       C  0.84530489  0.19578476  0.14498354    -0.23900
C1776       C  0.84682866  0.25329881  0.13571286    -0.24100
C1777       C  0.83413633  0.28667674  0.16224419    -0.01100
H1778       H  0.84737622  0.15998111  0.12647456     0.12700
H1779       H  0.85010206  0.26378182  0.10934482     0.12700
N1780       N  0.83114686  0.25742392  0.43413147    -0.03600
C1781       C  0.83296713  0.21984622  0.40669059    -0.01000
C1782       C  0.84450519  0.24979941  0.37807542    -0.23900
C1783       C  0.84691842  0.30718305  0.38690110    -0.24100
C1784       C  0.83028403  0.31023023  0.41706503    -0.01100
H1785       H  0.84229101  0.23842146  0.35170855     0.12700
H1786       H  0.84891576  0.34196789  0.36775507     0.12700
Zr1787     Zr  0.51715656  0.57912564  0.16205085     2.17500
O1788       O  0.99497465  0.65652935  0.19462534    -0.51400
O1789       O  0.55854406  0.59493423  0.19251554    -0.74700
O1790       O  0.52478489  0.52136491  0.21595212    -0.81400
O1791       O  0.55288347  0.64148540  0.07009584    -0.83200
O1792       O  0.98497823  0.47192404  0.22235539    -0.78800
O1793       O  0.54683724  0.65834131  0.12734962    -0.90400
O1794       O  0.58772351  0.53066103  0.16154320    -0.76400
O1795       O  0.53040013  0.47875233  0.17010575    -0.85900
O1796       O  0.54788640  0.55106852  0.11402473    -0.85600
O1797       O  0.97470813  0.51923809  0.16514780    -0.72300
O1798       O  0.98903479  0.58899657  0.11435429    -0.84500
Zr1799     Zr  0.99221246  0.40223363  0.07589110     2.26400
Zr1800     Zr  0.99024235  0.41724370  0.17158615     2.06300
Zr1801     Zr  0.51925829  0.56345332  0.06655017     2.10000
Zr1802     Zr  0.56270422  0.45464330  0.12474635     1.78800
O1803       O  0.98062420  0.62324633  0.04863285    -0.93300
O1804       O  0.58419869  0.39601796  0.16847534    -0.41100
O1805       O  0.53497424  0.46251175  0.07445943    -0.77700
O1806       O  0.52066522  0.39033681  0.12384239    -0.96400
O1807       O  0.96265720  0.42924262  0.12385515    -0.89700
O1808       O  0.97787634  0.50338793  0.06760617    -0.92600
C1809       C  0.58336370  0.57634949  0.18229667     1.01200
C1810       C  0.55855166  0.67044422  0.09633380     1.14100
C1811       C  0.50828396  0.48320648  0.23229120     1.04900
O1812       O  0.52475599  0.34718276  0.18660119    -0.94700
O1813       O  0.95059388  0.35274559  0.16820201    -0.90500
O1814       O  0.95710892  0.33577274  0.11116129    -0.83600
C1815       C  0.94409599  0.32577116  0.14154530     1.11500
O1816       O  0.92311148  0.61393645  0.13858236    -0.96700
Zr1817     Zr  0.94676110  0.52533970  0.11530767     1.88900
O1818       O  0.94795840  0.38445213  0.05013043    -0.73300
O1819       O  0.96909567  0.34934390  0.21518680    -0.52600
O1820       O  0.90984202  0.49360442  0.15839766    -0.97300
O1821       O  0.91973230  0.58328980  0.07598358    -0.54500
O1822       O  0.91989868  0.44925376  0.08204583    -0.73800
C1823       C  0.92342996  0.40472001  0.06071846     0.98500
O1824       O  0.51240684  0.31399814  0.04949397    -0.62700
O1825       O  0.53321183  0.61887092  0.01415102    -0.57500
O1826       O  0.99450821  0.44076314  0.01693939    -0.94200
O1827       O  0.53303271  0.49830035  0.02179051    -0.92600
O1828       O  0.60221358  0.47944426  0.08334363    -0.92900
O1829       O  0.58932632  0.36842220  0.10263600    -0.91700
C1830       C  0.51149954  0.48527359  0.00586949     1.17300
H1831       H  0.56655164  0.56888285  0.11065488     0.33300
H1832       H  0.52614745  0.34918888  0.12483672     0.44100
H1833       H  0.96688540  0.50982602  0.04797756     0.37700
H1834       H  0.96225551  0.53288066  0.18429824     0.34100
H1835       H  0.60511665  0.40220607  0.16411601     0.25900
H1836       H  0.98492730  0.32852987  0.22559747     0.31900
H1837       H  0.90480698  0.45288108  0.15163141     0.37800
H1838       H  0.60934390  0.51823262  0.09088752     0.32200
H1839       H  0.52914782  0.66142414  0.01823031     0.31100
H1840       H  0.98437536  0.66325963  0.05763066     0.32800
H1841       H  0.89991098  0.56773163  0.07920712     0.31800
H1842       H  0.57456381  0.34101083  0.09494932     0.35800
H1843       H  0.51147494  0.32042262  0.02457544     0.28500
H1844       H  0.50825879  0.67712849  0.20747858     0.32700
H1845       H  0.93263508  0.62208745  0.15988852     0.35600
H1846       H  0.55428835  0.61562076  0.00987887     0.28200
H1847       H  0.53306989  0.31673663  0.05331499     0.41100
H1848       H  0.53376522  0.36454203  0.20637937     0.31100
H1849       H  0.57928466  0.41745339  0.19016741     0.38700
H1850       H  0.92649479  0.57016719  0.05267825     0.30600
H1851       H  0.96032937  0.37446577  0.23372226     0.30600
H1852       H  0.98264687  0.63589783  0.21248597     0.30900
Zr1853     Zr  0.99241802  0.39194068  0.33489139     2.17500
O1854       O  0.51230350  0.29443784  0.32014934    -0.51400
O1855       O  0.94910943  0.37573523  0.30406252    -0.74700
O1856       O  0.96134717  0.33303983  0.37573626    -0.81400
O1857       O  0.54125479  0.45450602  0.27242110    -0.83200
O1858       O  0.93795192  0.39470927  0.41348367    -0.78800
O1859       O  0.00222417  0.40226214  0.27233689    -0.90400
O1860       O  0.92755007  0.46607009  0.30921211    -0.76400
O1861       O  0.95849367  0.44508050  0.37063963    -0.85900
O1862       O  0.98730136  0.48927615  0.31192853    -0.85600
O1863       O  0.51602122  0.39586909  0.38888321    -0.72300
O1864       O  0.54043820  0.43738863  0.33403984    -0.84500
Zr1865     Zr  0.52176865  0.59031779  0.40123284     2.26400
Zr1866     Zr  0.97866041  0.44981475  0.42466361     2.06300
Zr1867     Zr  0.53355639  0.53389328  0.31051945     2.10000
Zr1868     Zr  0.95289560  0.53865335  0.34694097     1.78800
O1869       O  0.57286345  0.53048849  0.26628549    -0.93300
O1870       O  0.90938027  0.53249195  0.38463912    -0.41100
O1871       O  0.99959743  0.58599291  0.34666751    -0.77700
O1872       O  0.97274771  0.54843697  0.40236498    -0.96400
O1873       O  0.52687605  0.49344483  0.42253389    -0.89700
O1874       O  0.55570211  0.53973294  0.36371004    -0.92600
C1875       C  0.92923477  0.41207991  0.29680194     1.01200
C1876       C  0.51877974  0.44206675  0.25827387     1.14100
C1877       C  0.94004217  0.34644132  0.39738618     1.04900
O1878       O  0.94361575  0.43972919  0.47359059    -0.94700
O1879       O  0.97676104  0.52139074  0.46833482    -0.90500
O1880       O  0.52298628  0.55245069  0.46082526    -0.83600
C1881       C  0.50340019  0.52503181  0.47940177     1.11500
O1882       O  0.58434062  0.35118008  0.37615021    -0.96700
Zr1883     Zr  0.56217945  0.44717442  0.38834635     1.88900
O1884       O  0.56464859  0.61477524  0.43000273    -0.73300
O1885       O  0.49817856  0.36749823  0.45980642    -0.52600
O1886       O  0.57421800  0.39241442  0.43895297    -0.97300
O1887       O  0.60769143  0.46210549  0.35539910    -0.54500
O1888       O  0.58479572  0.52290043  0.42750924    -0.73800
C1889       C  0.58377146  0.57798934  0.43864301     0.98500
O1890       O  0.99991245  0.68312021  0.42242494    -0.62700
O1891       O  0.01096529  0.59670430  0.27101719    -0.57500
O1892       O  0.55027111  0.65497960  0.36096084    -0.94200
O1893       O  0.56661605  0.61052028  0.31125750    -0.92600
O1894       O  0.94236719  0.59677784  0.29688732    -0.92900
O1895       O  0.93263970  0.63782093  0.35123380    -0.91700
C1896       C  0.56731749  0.65085118  0.33330786     1.17300
H1897       H  0.97913755  0.49109231  0.29008716     0.33300
H1898       H  0.95978049  0.57168939  0.41726124     0.44100
H1899       H  0.57466442  0.55673350  0.36275476     0.37700
H1900       H  0.51850554  0.35572628  0.39657461     0.34100
H1901       H  0.91208455  0.49761958  0.39936248     0.25900
H1902       H  0.49309763  0.33049267  0.44811205     0.31900
H1903       H  0.59520879  0.39743042  0.43975225     0.37800
H1904       H  0.94610163  0.57004312  0.27703701     0.32200
H1905       H  0.50059362  0.63035441  0.28621326     0.31100
H1906       H  0.56943554  0.56423214  0.25115545     0.32800
H1907       H  0.60569333  0.44116807  0.33347340     0.31800
H1908       H  0.94396090  0.65810916  0.36818780     0.35800
H1909       H  0.01680305  0.70798089  0.42641891     0.28500
H1910       H  0.50210586  0.28255478  0.29991516     0.32700
H1911       H  0.57242058  0.33302479  0.35904082     0.35600
H1912       H  0.02700806  0.61282204  0.25596062     0.28200
H1913       H  0.99174782  0.70113489  0.40220977     0.41100
H1914       H  0.92736280  0.46568385  0.46853358     0.31100
H1915       H  0.91012699  0.56664831  0.40039145     0.38700
H1916       H  0.62161159  0.43823721  0.36740697     0.30600
H1917       H  0.51936063  0.36962127  0.45729989     0.30600
H1918       H  0.50438558  0.26815468  0.33874252     0.30900
N1919       N  0.62865492  0.63356818  0.20134732    -0.03600
C1920       C  0.60550662  0.62426187  0.18159772    -0.01000
C1921       C  0.61272857  0.63660569  0.14817715    -0.23900
C1922       C  0.64058702  0.64332024  0.14476895    -0.24100
C1923       C  0.65073025  0.62950942  0.17588579    -0.01100
H1924       H  0.60098643  0.62509998  0.12655346     0.12700
H1925       H  0.65123115  0.63792151  0.11978969     0.12700
N1926       N  0.62626221  0.63895893  0.45819240    -0.03600
C1927       C  0.60454858  0.59811806  0.46507114    -0.01000
C1928       C  0.61515760  0.55221832  0.48379043    -0.23900
C1929       C  0.64434494  0.55577754  0.47922300    -0.24100
C1930       C  0.65041789  0.60437065  0.45848841    -0.01100
H1931       H  0.60379303  0.51182397  0.49100699     0.12700
H1932       H  0.65850885  0.51854998  0.48243273     0.12700
Zr1933     Zr  0.81032424  0.48534701  0.13544298     2.17500
O1934       O  0.85294637  0.53641579  0.15221296    -0.51400
O1935       O  0.82645724  0.38895084  0.15333452    -0.74700
O1936       O  0.80523141  0.47111957  0.19800421    -0.81400
O1937       O  0.82743963  0.46326754  0.03206695    -0.83200
O1938       O  0.76054194  0.43411111  0.20402093    -0.78800
O1939       O  0.84582318  0.46182646  0.08410569    -0.90400
O1940       O  0.79058288  0.32682789  0.13955926    -0.76400
O1941       O  0.76691217  0.43743675  0.15511039    -0.85900
O1942       O  0.79077224  0.43625878  0.09002366    -0.85600
O1943       O  0.77607334  0.55926300  0.15842876    -0.72300
O1944       O  0.80026137  0.56636427  0.09830367    -0.84500
Zr1945     Zr  0.70808563  0.53053179  0.08801515     2.26400
Zr1946     Zr  0.73207241  0.50734908  0.17699825     2.06300
Zr1947     Zr  0.78378978  0.51374033  0.05043322     2.10000
Zr1948     Zr  0.75096000  0.38154632  0.11090165     1.78800
O1949       O  0.82194806  0.57112771  0.02057487    -0.93300
O1950       O  0.72638428  0.32242520  0.15612950    -0.41100
O1951       O  0.74181876  0.45647810  0.06822039    -0.77700
O1952       O  0.71491759  0.45431814  0.12924368    -0.96400
O1953       O  0.72298919  0.57973945  0.13580728    -0.89700
O1954       O  0.74978499  0.58557751  0.07296924    -0.92600
C1955       C  0.81514326  0.33731952  0.15252496     1.01200
C1956       C  0.84478445  0.44201361  0.05245239     1.14100
C1957       C  0.78417520  0.44739156  0.21622320     1.04900
O1958       O  0.69361928  0.44962213  0.20634799    -0.94700
O1959       O  0.68732542  0.55988237  0.19519940    -0.90500
O1960       O  0.68214158  0.57044550  0.13976549    -0.83600
C1961       C  0.67383877  0.58263318  0.17119976     1.11500
O1962       O  0.79926245  0.69905649  0.14344156    -0.96700
Zr1963     Zr  0.76308333  0.63659343  0.11981890     1.88900
O1964       O  0.68890178  0.62250958  0.07152021    -0.73300
O1965       O  0.74547858  0.58437847  0.21571948    -0.52600
O1966       O  0.74304941  0.68565356  0.17146969    -0.97300
O1967       O  0.78396741  0.70902000  0.07909246    -0.54500
O1968       O  0.71805634  0.68632514  0.09829212    -0.73800
C1969       C  0.69549606  0.67423350  0.08117896     0.98500
O1970       O  0.66422373  0.48105315  0.07431243    -0.62700
O1971       O  0.77268391  0.44176119  0.00674407    -0.57500
O1972       O  0.71465367  0.55266846  0.02644617    -0.94200
O1973       O  0.76106896  0.58020969  0.01455433    -0.92600
O1974       O  0.76939025  0.31735975  0.06429158    -0.92900
O1975       O  0.71312916  0.32426749  0.08679104    -0.91700
C1976       C  0.73539785  0.57437675  0.00674464     1.17300
H1977       H  0.80169435  0.40465394  0.07965728     0.33300
H1978       H  0.69687583  0.43512389  0.13574391     0.44100
H1979       H  0.74524175  0.62113142  0.06094182     0.37700
H1980       H  0.78522026  0.57772455  0.17702274     0.34100
H1981       H  0.72864265  0.28092107  0.14830723     0.25900
H1982       H  0.72770329  0.60084388  0.22716099     0.31900
H1983       H  0.72224246  0.68894093  0.16851421     0.37800
H1984       H  0.78772641  0.30145473  0.07158988     0.32200
H1985       H  0.78114849  0.40405393  0.01405775     0.31100
H1986       H  0.82937300  0.59695083  0.03836303     0.32800
H1987       H  0.76741629  0.72943238  0.06990746     0.31800
H1988       H  0.70587374  0.35029935  0.06898596     0.35800
H1989       H  0.66430018  0.48352532  0.04905127     0.28500
H1990       H  0.84735651  0.55292545  0.17515662     0.32700
H1991       H  0.80888890  0.67301882  0.15942909     0.35600
H1992       H  0.75176833  0.43473494  0.00904409     0.28200
H1993       H  0.66766586  0.43870171  0.07904491     0.41100
H1994       H  0.69851641  0.40789864  0.20090383     0.31100
H1995       H  0.73862172  0.32530048  0.17569550     0.38700
H1996       H  0.79231729  0.68510015  0.05966251     0.30600
H1997       H  0.75520271  0.56216049  0.23307221     0.30600
H1998       H  0.85475674  0.57139725  0.13697407     0.30900
Zr1999     Zr  0.77377851  0.40004675  0.33419743     2.17500
O2000       O  0.75520522  0.30404427  0.31988051    -0.51400
O2001       O  0.82117193  0.38145546  0.30654681    -0.74700
O2002       O  0.77516920  0.40433348  0.27133080    -0.81400
O2003       O  0.79417657  0.37898039  0.43192761    -0.83200
O2004       O  0.78607838  0.50048477  0.26537987    -0.78800
O2005       O  0.79363184  0.33569095  0.37945825    -0.90400
O2006       O  0.84119104  0.47318993  0.30872579    -0.76400
O2007       O  0.78848335  0.49398730  0.31250084    -0.85900
O2008       O  0.80023536  0.45060744  0.37391573    -0.85600
O2009       O  0.73072641  0.45433513  0.32181193    -0.72300
O2010       O  0.73777265  0.41226768  0.38029345    -0.84500
Zr2011     Zr  0.73782092  0.60915733  0.38815211     2.26400
Zr2012     Zr  0.74781281  0.54876401  0.29946318     2.06300
Zr2013     Zr  0.76539555  0.46161467  0.42046148     2.10000
Zr2014     Zr  0.81540477  0.54219968  0.35103175     1.78800
O2015       O  0.74133658  0.38167639  0.45304056    -0.93300
O2016       O  0.83946479  0.60426946  0.30693479    -0.41100
O2017       O  0.78122995  0.55669608  0.39956481    -0.77700
O2018       O  0.77315501  0.59994476  0.34113482    -0.96400
O2019       O  0.71305280  0.56141491  0.34610813    -0.89700
O2020       O  0.72354235  0.51395431  0.40826746    -0.92600
C2021       C  0.84073492  0.41903208  0.29715496     1.01200
C2022       C  0.80290773  0.34032925  0.41020139     1.14100
C2023       C  0.78331913  0.44914778  0.25281271     1.04900
O2024       O  0.76890881  0.63617873  0.27052419    -0.94700
O2025       O  0.71663272  0.63083934  0.29062769    -0.90500
O2026       O  0.71252560  0.66591200  0.34530418    -0.83600
C2027       C  0.70561897  0.66559826  0.31362810     1.11500
O2028       O  0.67168357  0.38712578  0.34506239    -0.96700
Zr2029     Zr  0.69563125  0.47154750  0.36915319     1.88900
O2030       O  0.69197291  0.62561532  0.42088665    -0.73300
O2031       O  0.71500629  0.51091626  0.25924535    -0.52600
O2032       O  0.66091841  0.51100102  0.33157222    -0.97300
O2033       O  0.67123080  0.40763392  0.41219319    -0.54500
O2034       O  0.66713687  0.54095825  0.41063869    -0.73800
C2035       C  0.67032406  0.59108354  0.42693222     0.98500
O2036       O  0.75949707  0.70530844  0.39651635    -0.62700
O2037       O  0.80179568  0.49362653  0.45832424    -0.57500
O2038       O  0.73619492  0.60737457  0.45038930    -0.94200
O2039       O  0.74034920  0.51012885  0.46538250    -0.92600
O2040       O  0.85118674  0.51260589  0.38980622    -0.92900
O2041       O  0.84145818  0.62714757  0.37121110    -0.91700
C2042       C  0.73474118  0.56391153  0.47163150     1.17300
H2043       H  0.81751867  0.43035803  0.37892716     0.33300
H2044       H  0.77885028  0.63887822  0.33305588     0.44100
H2045       H  0.70958544  0.51297930  0.42730341     0.37700
H2046       H  0.72139903  0.43155252  0.30499559     0.34100
H2047       H  0.86001592  0.59368765  0.30714004     0.25900
H2048       H  0.72258699  0.47113659  0.25335515     0.31900
H2049       H  0.65370322  0.54788855  0.34281770     0.37800
H2050       H  0.86124911  0.47880549  0.37818225     0.32200
H2051       H  0.82027079  0.47898322  0.44760720     0.31100
H2052       H  0.73729918  0.35079380  0.43609044     0.32800
H2053       H  0.65246128  0.42678431  0.41799594     0.31800
H2054       H  0.83115507  0.63778008  0.39333910     0.35800
H2055       H  0.76384682  0.70556040  0.42090031     0.28500
H2056       H  0.76692372  0.29342444  0.29870820     0.32700
H2057       H  0.68637688  0.35547113  0.34370316     0.35600
H2058       H  0.80298231  0.53720005  0.45611718     0.28200
H2059       H  0.77854507  0.70287485  0.38381008     0.41100
H2060       H  0.78960167  0.62718473  0.26674625     0.31100
H2061       H  0.83359142  0.58772082  0.28509462     0.38700
H2062       H  0.68194210  0.41300805  0.43290118     0.30600
H2063       H  0.69667540  0.50403268  0.27291982     0.30600
H2064       H  0.73604603  0.31298911  0.31192440     0.30900
C2065       C  0.62439866  0.80796136  0.97837601     0.86400
C2066       C  0.59988489  0.80100398  0.50629211    -0.53900
C2067       C  0.60131929  0.75256492  0.52856285     0.09300
C2068       C  0.62819127  0.71225801  0.51707422     0.20200
C2069       C  0.65146778  0.80410815  0.99927410    -0.54600
C2070       C  0.65451168  0.75651456  0.51979685     0.09400
C2071       C  0.62455516  0.74858743  0.95817156    -0.54100
C2072       C  0.62580324  0.69723324  0.97666628     0.10000
H2073       H  0.58410559  0.83570385  0.51090419     0.14500
H2074       H  0.62967916  0.67213039  0.53320330     0.00200
H2075       H  0.66663067  0.84050522  0.99940173     0.14800
H2076       H  0.62366585  0.74664629  0.93066689     0.14600
C2077       C  0.62865006  0.69200578  0.72321277     0.86400
C2078       C  0.65681200  0.70221724  0.74086038    -0.53900
C2079       C  0.65777617  0.75099645  0.76222096     0.09300
C2080       C  0.62905859  0.78885966  0.76204491     0.20200
C2081       C  0.60512616  0.69415880  0.75356285    -0.54600
C2082       C  0.60501191  0.74337522  0.77518343     0.09400
C2083       C  0.62447644  0.75113147  0.70356415    -0.54100
C2084       C  0.62410111  0.80242265  0.72249266     0.10000
H2085       H  0.67378105  0.66930896  0.73927692     0.14500
H2086       H  0.62935463  0.82926489  0.77812949     0.00200
H2087       H  0.59101214  0.65685961  0.75876856     0.14800
H2088       H  0.62311479  0.75280582  0.67621288     0.14600
C2089       C  0.88167017  0.30692042  0.50378590     0.86400
C2090       C  0.90629532  0.30083100  0.97563429    -0.53900
C2091       C  0.90489852  0.25208053  0.95354300     0.09300
C2092       C  0.87801087  0.21194422  0.96514461     0.20200
C2093       C  0.85419460  0.30440044  0.98366282    -0.54600
C2094       C  0.85165521  0.25625002  0.96235567     0.09400
C2095       C  0.88162275  0.24742673  0.52370510    -0.54100
C2096       C  0.88024681  0.19788390  0.00569600     0.10000
H2097       H  0.92210703  0.33542437  0.97094514     0.14500
H2098       H  0.87651516  0.17169818  0.94911737     0.00200
H2099       H  0.83890028  0.34057476  0.98380304     0.14800
H2100       H  0.88251936  0.24504312  0.55119229     0.14600
C2101       C  0.87759178  0.19111100  0.75837664     0.86400
C2102       C  0.84944491  0.20207916  0.74083921    -0.53900
C2103       C  0.84885045  0.25051523  0.71916854     0.09300
C2104       C  0.87777707  0.28755192  0.71915389     0.20200
C2105       C  0.90098541  0.19206807  0.72782431    -0.54600
C2106       C  0.90138840  0.24121267  0.70609277     0.09400
C2107       C  0.88225841  0.25031936  0.77773271    -0.54100
C2108       C  0.88286700  0.30144391  0.75861950     0.10000
H2109       H  0.83223219  0.16970692  0.74258531     0.14500
H2110       H  0.87771142  0.32777156  0.70289145     0.00200
H2111       H  0.91470995  0.15415527  0.72257407     0.14800
H2112       H  0.88351765  0.25220674  0.80509354     0.14600
N2113       N  0.58665424  0.75656774  0.56412787    -0.03600
C2114       C  0.58296646  0.71721435  0.59136862    -0.01000
C2115       C  0.59096754  0.74411722  0.62092819    -0.23900
C2116       C  0.59846337  0.80006688  0.61321428    -0.24100
C2117       C  0.58954798  0.80843405  0.58097979    -0.01100
H2118       H  0.58445517  0.73119955  0.64690097     0.12700
H2119       H  0.59984127  0.83410636  0.63251995     0.12700
N2120       N  0.58977568  0.74129668  0.81039407    -0.03600
C2121       C  0.58675217  0.78346316  0.83601798    -0.01000
C2122       C  0.59446926  0.75949491  0.86651859    -0.23900
C2123       C  0.60167182  0.70283445  0.86096562    -0.24100
C2124       C  0.59238343  0.69126220  0.82918177    -0.01100
H2125       H  0.58768757  0.77461190  0.89195349     0.12700
H2126       H  0.60284959  0.67099677  0.88158137     0.12700
N2127       N  0.88219793  0.36364496  0.52653526    -0.03600
C2128       C  0.89836068  0.36343990  0.55470414    -0.01000
C2129       C  0.88105973  0.35052152  0.58361486    -0.23900
C2130       C  0.85405555  0.34797315  0.57394251    -0.24100
C2131       C  0.85616557  0.37752857  0.54368742    -0.01100
H2132       H  0.88609167  0.35693818  0.60992818     0.12700
H2133       H  0.83602076  0.34973222  0.59226592     0.12700
N2134       N  0.88549203  0.36108965  0.77544112    -0.03600
C2135       C  0.91024615  0.39458189  0.76968330    -0.01000
C2136       C  0.90444801  0.44174617  0.74865543    -0.23900
C2137       C  0.87534574  0.44724867  0.75001358    -0.24100
C2138       C  0.86441094  0.40201109  0.77077918    -0.01100
H2139       H  0.91899462  0.47782175  0.74168012     0.12700
H2140       H  0.86427221  0.48768670  0.74407061     0.12700
N2141       N  0.67529375  0.75924405  0.54740643    -0.03600
C2142       C  0.67412381  0.72118440  0.57467400    -0.01000
C2143       C  0.66274068  0.75040221  0.60361764    -0.23900
C2144       C  0.65934788  0.80767540  0.59504730    -0.24100
C2145       C  0.67555718  0.81203352  0.56459745    -0.01100
H2146       H  0.66550957  0.73867678  0.62984502     0.12700
H2147       H  0.65711489  0.84221095  0.61432404     0.12700
N2148       N  0.67857983  0.75224392  0.78962911    -0.03600
C2149       C  0.67295073  0.78912496  0.81706252    -0.01000
C2150       C  0.65946881  0.75649178  0.84328704    -0.23900
C2151       C  0.66126699  0.69880158  0.83451224    -0.24100
C2152       C  0.67981749  0.69876525  0.80599800    -0.01100
H2153       H  0.65556025  0.76772478  0.86942194     0.12700
H2154       H  0.65887102  0.66347030  0.85328057     0.12700
N2155       N  0.88061215  0.13759844  0.52327402    -0.03600
C2156       C  0.90227769  0.09697374  0.51584044    -0.01000
C2157       C  0.89130355  0.05072337  0.49765339    -0.23900
C2158       C  0.86217582  0.05381229  0.50341066    -0.24100
C2159       C  0.85647675  0.10278569  0.52395609    -0.01100
H2160       H  0.90260424  0.01036608  0.49019530     0.12700
H2161       H  0.84797591  0.01642979  0.50082755     0.12700
N2162       N  0.87668215  0.13445132  0.78090329    -0.03600
C2163       C  0.89946927  0.12458640  0.80107970    -0.01000
C2164       C  0.89202241  0.13747418  0.83439958    -0.23900
C2165       C  0.86421255  0.14571815  0.83721634    -0.24100
C2166       C  0.85431452  0.13145952  0.80603076    -0.01100
H2167       H  0.90342632  0.12560915  0.85628687     0.12700
H2168       H  0.85323131  0.14086905  0.86200875     0.12700
N2169       N  0.91663403  0.23912603  0.67092456    -0.03600
C2170       C  0.91914816  0.28121699  0.64530715    -0.01000
C2171       C  0.91154203  0.25698200  0.61482425    -0.23900
C2172       C  0.90530333  0.19985829  0.62029926    -0.24100
C2173       C  0.91453677  0.18898871  0.65218014    -0.01100
H2174       H  0.91794813  0.27258866  0.58939649     0.12700
H2175       H  0.90460346  0.16791153  0.59968069     0.12700
N2176       N  0.91979372  0.25538126  0.91805056    -0.03600
C2177       C  0.92311141  0.21593106  0.89076111    -0.01000
C2178       C  0.91487664  0.24282818  0.86133535    -0.23900
C2179       C  0.90783704  0.29900451  0.86904230    -0.24100
C2180       C  0.91691356  0.30719943  0.90120089    -0.01100
H2181       H  0.92109390  0.22967459  0.83533683     0.12700
H2182       H  0.90655271  0.33307445  0.84972225     0.12700
Zr2183     Zr  0.51290709  0.89379898  0.64626230     2.17500
O2184       O  0.99359542  0.79481456  0.66105452    -0.51400
O2185       O  0.55609770  0.87616145  0.67669441    -0.74700
O2186       O  0.54371252  0.83321315  0.60587992    -0.81400
O2187       O  0.96389793  0.95198680  0.70825941    -0.83200
O2188       O  0.56685651  0.89523532  0.56811640    -0.78800
O2189       O  0.50366155  0.90372002  0.70880457    -0.90400
O2190       O  0.57835678  0.96569378  0.67027195    -0.76400
O2191       O  0.54712923  0.94620048  0.61035442    -0.85900
O2192       O  0.51897896  0.99138883  0.66885136    -0.85600
O2193       O  0.99128077  0.89640855  0.59200841    -0.72300
O2194       O  0.96570061  0.93593382  0.64653908    -0.84500
Zr2195     Zr  0.98497944  0.09111949  0.58056680     2.26400
Zr2196     Zr  0.52659542  0.95118911  0.55672117     2.06300
Zr2197     Zr  0.97158526  0.03207741  0.67062241     2.10000
Zr2198     Zr  0.55343206  0.04000313  0.63330570     1.78800
O2199       O  0.92890299  0.02769221  0.71004854    -0.93300
O2200       O  0.59653894  0.03167957  0.59503838    -0.41100
O2201       O  0.50693289  0.08878955  0.63411186    -0.77700
O2202       O  0.53300303  0.04986387  0.57834526    -0.96400
O2203       O  0.98071865  0.99413411  0.55902702    -0.89700
O2204       O  0.95069645  0.03917948  0.61674842    -0.92600
C2205       C  0.57634277  0.91208920  0.68320726     1.01200
C2206       C  0.48646270  0.94242640  0.72277743     1.14100
C2207       C  0.56489320  0.84684691  0.58405529     1.04900
O2208       O  0.56189784  0.94584029  0.50788222    -0.94700
O2209       O  0.52783788  0.02138011  0.51239500    -0.90500
O2210       O  0.98421384  0.05529866  0.52053820    -0.83600
C2211       C  0.50310575  0.02625330  0.50217868     1.11500
O2212       O  0.92188937  0.85104695  0.60262629    -0.96700
Zr2213     Zr  0.94493220  0.94654010  0.59184533     1.88900
O2214       O  0.94221401  0.11398576  0.55091693    -0.73300
O2215       O  0.01193816  0.86794166  0.52165852    -0.52600
O2216       O  0.93505622  0.89090473  0.54066708    -0.97300
O2217       O  0.89970762  0.96098465  0.62567515    -0.54500
O2218       O  0.92219112  0.02196005  0.55305765    -0.73800
C2219       C  0.92321728  0.07700296  0.54204579     0.98500
O2220       O  0.50778448  0.18425562  0.55839044    -0.62700
O2221       O  0.49590598  0.09899380  0.71015754    -0.57500
O2222       O  0.95688479  0.15551790  0.62177307    -0.94200
O2223       O  0.93863596  0.10802988  0.66976063    -0.92600
O2224       O  0.56627337  0.09673889  0.68294775    -0.92900
O2225       O  0.57491331  0.13807139  0.62727166    -0.91700
C2226       C  0.93891871  0.14978291  0.64858718     1.17300
H2227       H  0.52714905  0.99302307  0.69071010     0.33300
H2228       H  0.54605483  0.07231496  0.56311216     0.44100
H2229       H  0.93179943  0.05643621  0.61732735     0.37700
H2230       H  0.98911469  0.85638372  0.58395855     0.34100
H2231       H  0.59334405  0.99701813  0.58034453     0.25900
H2232       H  0.51815301  0.83224756  0.53365839     0.31900
H2233       H  0.92100890  0.91498981  0.52897339     0.37800
H2234       H  0.56494114  0.06849773  0.70233366     0.32200
H2235       H  0.51156092  0.11920469  0.69641331     0.31100
H2236       H  0.93345067  0.05213625  0.72985756     0.32800
H2237       H  0.90200923  0.93977345  0.64745123     0.31800
H2238       H  0.56301477  0.15902942  0.61116950     0.35800
H2239       H  0.52779989  0.17300390  0.55131334     0.28500
H2240       H  0.50975902  0.77088490  0.66129010     0.32700
H2241       H  0.93217839  0.83369224  0.62148502     0.35600
H2242       H  0.48177262  0.13072588  0.71590524     0.28200
H2243       H  0.49888012  0.19183755  0.53660775     0.41100
H2244       H  0.57896450  0.96719470  0.51512169     0.31100
H2245       H  0.59617822  0.06592679  0.57930003     0.38700
H2246       H  0.88549770  0.93747204  0.61390414     0.30600
H2247       H  0.99072685  0.86882902  0.52313873     0.30600
H2248       H  0.98682647  0.77957128  0.63932565     0.30900
Zr2249     Zr  0.98743145  0.07842841  0.81879735     2.17500
O2250       O  0.51320423  0.15811219  0.78640690    -0.51400
O2251       O  0.94601415  0.09333114  0.78830153    -0.74700
O2252       O  0.97903053  0.01854183  0.76579387    -0.81400
O2253       O  0.95456606  0.14496802  0.91091756    -0.83200
O2254       O  0.52125865  0.97155733  0.75922551    -0.78800
O2255       O  0.95759390  0.15815164  0.85321368    -0.90400
O2256       O  0.91741848  0.03201332  0.82196700    -0.76400
O2257       O  0.97399384  0.97798313  0.81147682    -0.85900
O2258       O  0.95766917  0.05185400  0.86811789    -0.85600
O2259       O  0.53222460  0.01965756  0.81615385    -0.72300
O2260       O  0.51881651  0.09091814  0.86635333    -0.84500
Zr2261     Zr  0.51408377  0.90377209  0.90601512     2.26400
Zr2262     Zr  0.51608092  0.91796009  0.81048566     2.06300
Zr2263     Zr  0.98720879  0.06498801  0.91457695     2.10000
Zr2264     Zr  0.94259816  0.95551587  0.85810088     1.78800
O2265       O  0.52845706  0.12398889  0.92960180    -0.93300
O2266       O  0.92055237  0.89631533  0.81522204    -0.41100
O2267       O  0.97110864  0.96432709  0.90757195    -0.77700
O2268       O  0.98462525  0.89102668  0.85776725    -0.96400
O2269       O  0.54395149  0.92929000  0.85802977    -0.89700
O2270       O  0.52905687  0.00471350  0.91354582    -0.92600
C2271       C  0.92138566  0.07639004  0.80021073     1.01200
C2272       C  0.94720417  0.17175780  0.88463953     1.14100
C2273       C  0.49690051  0.98239462  0.74929231     1.04900
O2274       O  0.97935024  0.84803889  0.79497170    -0.94700
O2275       O  0.55517547  0.85189636  0.81355810    -0.90500
O2276       O  0.54959625  0.83673538  0.87085231    -0.83600
C2277       C  0.56220721  0.82580815  0.84026156     1.11500
O2278       O  0.58802089  0.10603299  0.83856488    -0.96700
Zr2279     Zr  0.56043026  0.02514255  0.86565752     1.88900
O2280       O  0.55759868  0.88669224  0.93326949    -0.73300
O2281       O  0.53707289  0.85059844  0.76663062    -0.52600
O2282       O  0.59491544  0.98731013  0.82139079    -0.97300
O2283       O  0.58804794  0.08395190  0.90397320    -0.54500
O2284       O  0.58612333  0.94910676  0.90025885    -0.73800
C2285       C  0.58226421  0.90559778  0.92227738     0.98500
O2286       O  0.99238352  0.81654968  0.93128657    -0.62700
O2287       O  0.97222514  0.11755615  0.96750591    -0.57500
O2288       O  0.51127424  0.94369727  0.96480772    -0.94200
O2289       O  0.97468990  0.99845802  0.95924217    -0.92600
O2290       O  0.90164638  0.98188179  0.89704252    -0.92900
O2291       O  0.91732688  0.87114409  0.88463122    -0.91700
C2292       C  0.49479936  0.98630851  0.97543792     1.17300
H2293       H  0.93920654  0.06928959  0.87222508     0.33300
H2294       H  0.97898924  0.84993106  0.85707000     0.44100
H2295       H  0.54001869  0.01109890  0.93321832     0.37700
H2296       H  0.54470705  0.03247632  0.79682965     0.34100
H2297       H  0.89968284  0.90184229  0.82045027     0.25900
H2298       H  0.52109219  0.83065248  0.75602138     0.31900
H2299       H  0.60494535  0.95466907  0.83245550     0.37800
H2300       H  0.90965269  0.00660369  0.91494225     0.32200
H2301       H  0.97734445  0.15988554  0.96455882     0.31100
H2302       H  0.52438270  0.16473378  0.92198305     0.32800
H2303       H  0.60836316  0.07545217  0.89669053     0.31800
H2304       H  0.92982750  0.85754549  0.90245408     0.35800
H2305       H  0.00564325  0.80483669  0.94872402     0.28500
H2306       H  0.49850874  0.17444715  0.77202691     0.32700
H2307       H  0.57751466  0.11660281  0.81833786     0.35600
H2308       H  0.95102517  0.11605000  0.97049167     0.28200
H2309       H  0.97519895  0.83167695  0.94477217     0.41100
H2310       H  0.97026156  0.86532881  0.77523380     0.31100
H2311       H  0.92472392  0.91812958  0.79349228     0.38700
H2312       H  0.58507183  0.06451217  0.92661373     0.30600
H2313       H  0.54610572  0.87577928  0.74828311     0.30600
H2314       H  0.52685169  0.13720893  0.77007603     0.30900
N2315       N  0.62128824  0.86186889  0.70554699    -0.03600
C2316       C  0.59632032  0.89469593  0.71108685     0.01400
C2317       C  0.60166237  0.94194173  0.73222764    -0.23900
C2318       C  0.63070427  0.94832608  0.73108630    -0.24100
C2319       C  0.64204737  0.90329862  0.71049504    -0.01100
H2320       H  0.58684088  0.97759680  0.73907212     0.12700
H2321       H  0.64147703  0.98906340  0.73712945     0.12700
N2322       N  0.62377956  0.86519879  0.95596433    -0.03600
C2323       C  0.60707636  0.86581417  0.92824727    -0.01000
C2324       C  0.62384769  0.85272945  0.89896289    -0.23900
C2325       C  0.65107138  0.84979109  0.90778159    -0.24100
C2326       C  0.64959462  0.87888307  0.93820197    -0.01100
H2327       H  0.61839222  0.85999058  0.87288860     0.12700
H2328       H  0.66867152  0.85244249  0.88881884     0.12700
Zr2329     Zr  0.73174966  0.90181143  0.64759767     2.17500
O2330       O  0.74956914  0.80607264  0.66374803    -0.51400
O2331       O  0.68411859  0.88306832  0.67394076    -0.74700
O2332       O  0.72907369  0.90687998  0.71076071    -0.81400
O2333       O  0.71081124  0.88327890  0.54981849    -0.83200
O2334       O  0.71822630  0.00300387  0.71635233    -0.78800
O2335       O  0.71250297  0.83804709  0.60160761    -0.90400
O2336       O  0.66459065  0.97522574  0.67152051    -0.76400
O2337       O  0.71681772  0.99567447  0.66890478    -0.85900
O2338       O  0.70611561  0.95317152  0.60746300    -0.85600
O2339       O  0.77457738  0.95583098  0.66062069    -0.72300
O2340       O  0.76841251  0.91340922  0.60203145    -0.84500
Zr2341     Zr  0.76901123  0.11043551  0.59366326     2.26400
Zr2342     Zr  0.75726996  0.05022200  0.68273907     2.06300
Zr2343     Zr  0.74134950  0.96334607  0.56133865     2.10000
Zr2344     Zr  0.69078095  0.04474526  0.62987137     1.78800
O2345       O  0.76328159  0.87942101  0.53035232    -0.93300
O2346       O  0.66867360  0.10850233  0.67437719    -0.41100
O2347       O  0.72562682  0.05849483  0.58200748    -0.77700
O2348       O  0.73301277  0.10220281  0.64024226    -0.96400
O2349       O  0.79271360  0.06248196  0.63661482    -0.89700
O2350       O  0.78344220  0.01508894  0.57381965    -0.92600
C2351       C  0.66470240  0.92100069  0.68307364     1.01200
C2352       C  0.70264511  0.84352394  0.57121286     1.14100
C2353       C  0.72086980  0.95184386  0.72920377     1.04900
O2354       O  0.73589295  0.13791711  0.71110994    -0.94700
O2355       O  0.79006468  0.12973170  0.69079682    -0.90500
O2356       O  0.79268191  0.16940262  0.63706125    -0.83600
C2357       C  0.80035277  0.16644217  0.66839627     1.11500
O2358       O  0.83498076  0.89088782  0.64011903    -0.96700
Zr2359     Zr  0.81044361  0.97262381  0.61403466     1.88900
O2360       O  0.81547165  0.12594739  0.56198586    -0.73300
O2361       O  0.78828099  0.01042844  0.72446986    -0.52600
O2362       O  0.84444156  0.01144250  0.65278140    -0.97300
O2363       O  0.83557032  0.90737992  0.57238285    -0.54500
O2364       O  0.83969240  0.04064618  0.57242524    -0.73800
C2365       C  0.83682354  0.09068921  0.55592610     0.98500
O2366       O  0.74874010  0.20701471  0.58289171    -0.62700
O2367       O  0.70543282  0.00009903  0.52420048    -0.57500
O2368       O  0.76944362  0.10786593  0.53127054    -0.94200
O2369       O  0.76724106  0.01032229  0.51632435    -0.92600
O2370       O  0.65394302  0.01451976  0.59274881    -0.92900
O2371       O  0.66363742  0.12513627  0.60617547    -0.91700
C2372       C  0.77174377  0.06447310  0.50994927     1.17300
H2373       H  0.68872513  0.93341673  0.60233762     0.33300
H2374       H  0.72738823  0.14127325  0.64814133     0.44100
H2375       H  0.79745351  0.01403065  0.55484764     0.37700
H2376       H  0.78363536  0.93291998  0.67758849     0.34100
H2377       H  0.64781498  0.10176708  0.67337957     0.25900
H2378       H  0.78098749  0.97003733  0.72920629     0.31900
H2379       H  0.85110159  0.04953534  0.64253541     0.37800
H2380       H  0.64435813  0.98054298  0.60476770     0.32200
H2381       H  0.68670052  0.99161041  0.53661479     0.31100
H2382       H  0.78361895  0.89084231  0.52557041     0.32800
H2383       H  0.83446800  0.92758139  0.55006749     0.31800
H2384       H  0.67708346  0.15906141  0.60476460     0.35800
H2385       H  0.74083735  0.20328918  0.56018717     0.28500
H2386       H  0.73636321  0.79473821  0.68357163     0.32700
H2387       H  0.81969013  0.86161172  0.64619743     0.35600
H2388       H  0.70696393  0.04378516  0.52422519     0.28200
H2389       H  0.73160365  0.20969959  0.59918752     0.41100
H2390       H  0.71578553  0.12686092  0.71775973     0.31100
H2391       H  0.67330183  0.08936656  0.69604762     0.38700
H2392       H  0.82282609  0.87257626  0.57101100     0.30600
H2393       H  0.80722317  0.00505195  0.71187110     0.30600
H2394       H  0.76784329  0.81522557  0.67393680     0.30900
Zr2395     Zr  0.69513449  0.98628317  0.84756702     2.17500
O2396       O  0.65160713  0.03695952  0.83328807    -0.51400
O2397       O  0.67991514  0.89036118  0.82841795    -0.74700
O2398       O  0.69977823  0.97457030  0.78465107    -0.81400
O2399       O  0.67893347  0.96037848  0.95082640    -0.83200
O2400       O  0.74436545  0.93727605  0.77766337    -0.78800
O2401       O  0.65994476  0.96236684  0.89915806    -0.90400
O2402       O  0.71667623  0.82844092  0.83955422    -0.76400
O2403       O  0.73846802  0.93905606  0.82692353    -0.85900
O2404       O  0.71502455  0.93511700  0.89215495    -0.85600
O2405       O  0.72884400  0.06123645  0.82486472    -0.72300
O2406       O  0.70520397  0.06612567  0.88536443    -0.84500
Zr2407     Zr  0.79774790  0.03050608  0.89401329     2.26400
Zr2408     Zr  0.77279135  0.01001083  0.80524192     2.06300
Zr2409     Zr  0.72215445  0.01178764  0.93220573     2.10000
Zr2410     Zr  0.75521106  0.88214394  0.87030706     1.78800
O2411       O  0.68309584  0.06887634  0.96035478    -0.93300
O2412       O  0.78198028  0.82291681  0.82694890    -0.41100
O2413       O  0.76421149  0.95588581  0.91337430    -0.77700
O2414       O  0.79076277  0.95574574  0.85203545    -0.96400
O2415       O  0.78230066  0.08138435  0.84697589    -0.89700
O2416       O  0.75588899  0.08450025  0.91022351    -0.92600
C2417       C  0.69180976  0.83923969  0.82749104     1.01200
C2418       C  0.66117450  0.94091908  0.93042388     1.14100
C2419       C  0.72054161  0.95066485  0.76594807     1.04900
O2420       O  0.81164856  0.95287943  0.77630217    -0.94700
O2421       O  0.81714966  0.06334250  0.78680626    -0.90500
O2422       O  0.82335129  0.07134942  0.84220595    -0.83600
C2423       C  0.83122333  0.08452734  0.81075453     1.11500
O2424       O  0.70598351  0.20313306  0.84346533    -0.96700
Zr2425     Zr  0.74203568  0.13704748  0.86418231     1.88900
O2426       O  0.81689279  0.12259068  0.91095186    -0.73300
O2427       O  0.75881501  0.08652544  0.76651328    -0.52600
O2428       O  0.75961551  0.18531716  0.81126800    -0.97300
O2429       O  0.72145995  0.20948765  0.90509824    -0.54500
O2430       O  0.78693695  0.18669307  0.88567619    -0.73800
C2431       C  0.80978149  0.17459406  0.90220558     0.98500
O2432       O  0.84081992  0.97924913  0.90908543    -0.62700
O2433       O  0.73439051  0.94193915  0.97636604    -0.57500
O2434       O  0.79156507  0.04989638  0.95568383    -0.94200
O2435       O  0.74508506  0.07621694  0.96866816    -0.92600
O2436       O  0.73635656  0.81660493  0.91602055    -0.92900
O2437       O  0.79277672  0.82547748  0.89538071    -0.91700
C2438       C  0.77092416  0.07062005  0.97583089     1.17300
H2439       H  0.70402166  0.90326814  0.90216680     0.33300
H2440       H  0.80880452  0.93696433  0.84505468     0.44100
H2441       H  0.76035465  0.11962457  0.92270384     0.37700
H2442       H  0.71955620  0.08041185  0.80660816     0.34100
H2443       H  0.77731017  0.78137844  0.83318129     0.25900
H2444       H  0.77639222  0.10222794  0.75420887     0.31900
H2445       H  0.78061161  0.18857499  0.81280647     0.37800
H2446       H  0.71829866  0.80041429  0.90807114     0.32200
H2447       H  0.72405934  0.90499830  0.97142659     0.31100
H2448       H  0.68731952  0.11040609  0.95373126     0.32800
H2449       H  0.73765748  0.23536470  0.91038942     0.31800
H2450       H  0.79801568  0.84944272  0.91517402     0.35800
H2451       H  0.83908371  0.97757704  0.93443422     0.28500
H2452       H  0.65479708  0.04671476  0.80865226     0.32700
H2453       H  0.69344832  0.17705707  0.83073484     0.35600
H2454       H  0.75486945  0.93172596  0.97185988     0.28200
H2455       H  0.83801286  0.93779849  0.90182331     0.41100
H2456       H  0.80406742  0.91207560  0.77513260     0.31100
H2457       H  0.77214335  0.82976632  0.80572325     0.38700
H2458       H  0.71689723  0.18688634  0.92644367     0.30600
H2459       H  0.74835954  0.06427931  0.74981186     0.30600
H2460       H  0.65232708  0.07562627  0.84510514     0.30900
N2461       N  0.82838043  0.25129534  0.69145647    -0.03600
C2462       C  0.82725077  0.19743468  0.67549185    -0.01000
C2463       C  0.84568501  0.19715966  0.64687523    -0.23900
C2464       C  0.84717675  0.25467607  0.63765698    -0.24100
C2465       C  0.83401269  0.28795862  0.66388914    -0.01100
H2466       H  0.84805053  0.16146434  0.62832203     0.12700
H2467       H  0.85066258  0.26499760  0.61135569     0.12700
N2468       N  0.83081998  0.25904118  0.93478363    -0.03600
C2469       C  0.83197443  0.22090183  0.90756918    -0.01000
C2470       C  0.84340821  0.24991923  0.87859294    -0.23900
C2471       C  0.84687985  0.30718348  0.88708382    -0.24100
C2472       C  0.83065378  0.31182308  0.91751488    -0.01100
H2473       H  0.84060069  0.23822818  0.85237885     0.12700
H2474       H  0.84919874  0.34160143  0.86774357     0.12700
Zr2475     Zr  0.51801363  0.58044368  0.66225513     2.17500
O2476       O  0.99235039  0.65301525  0.69662177    -0.51400
O2477       O  0.55932112  0.59434001  0.69331025    -0.74700
O2478       O  0.52570896  0.52180109  0.71572161    -0.81400
O2479       O  0.55227795  0.64509922  0.57071208    -0.83200
O2480       O  0.98545022  0.46627733  0.72303271    -0.78800
O2481       O  0.54792689  0.66005511  0.62822116    -0.90400
O2482       O  0.58842616  0.53252803  0.66064149    -0.76400
O2483       O  0.53134066  0.48003249  0.67006808    -0.85900
O2484       O  0.54846077  0.55285229  0.61377010    -0.85600
O2485       O  0.97385706  0.51542380  0.66674917    -0.72300
O2486       O  0.98653038  0.58815479  0.61650480    -0.84500
Zr2487     Zr  0.99146556  0.40183187  0.57538312     2.26400
Zr2488     Zr  0.99032579  0.41375318  0.67143487     2.06300
Zr2489     Zr  0.51950184  0.56517495  0.56662986     2.10000
Zr2490     Zr  0.56332293  0.45637772  0.62438378     1.78800
O2491       O  0.97689962  0.62569650  0.55365586    -0.93300
O2492       O  0.58557967  0.39967893  0.66835023    -0.41100
O2493       O  0.53499880  0.46429351  0.57468128    -0.77700
O2494       O  0.52139882  0.39155589  0.62380847    -0.96400
O2495       O  0.96237571  0.42621407  0.62420605    -0.89700
O2496       O  0.97592322  0.50274264  0.56891466    -0.92600
C2497       C  0.58412477  0.57718925  0.68207582     1.01200
C2498       C  0.55892513  0.67288462  0.59699255     1.14100
C2499       C  0.50913530  0.48387132  0.73210814     1.04900
O2500       O  0.52689029  0.34957593  0.68585466    -0.94700
O2501       O  0.95060760  0.34951975  0.66772032    -0.90500
O2502       O  0.95620755  0.33422642  0.61040342    -0.83600
C2503       C  0.94356798  0.32351080  0.64099061     1.11500
O2504       O  0.91864881  0.60535512  0.64296796    -0.96700
Zr2505     Zr  0.94523393  0.52172729  0.61761946     1.88900
O2506       O  0.94782792  0.38495575  0.54843056    -0.73300
O2507       O  0.96993568  0.34418747  0.71460519    -0.52600
O2508       O  0.90912250  0.48846469  0.66134375    -0.97300
O2509       O  0.91670233  0.57796308  0.57917606    -0.54500
O2510       O  0.91984045  0.44419628  0.58402793    -0.73800
C2511       C  0.92333282  0.40228990  0.56097399     0.98500
O2512       O  0.51458154  0.31686618  0.55123875    -0.62700
O2513       O  0.53569878  0.61704009  0.51374041    -0.57500
O2514       O  0.99296078  0.44297820  0.51685256    -0.94200
O2515       O  0.53293079  0.49755618  0.52287991    -0.92600
O2516       O  0.60248746  0.48293429  0.58295383    -0.92900
O2517       O  0.59063562  0.37095067  0.60255278    -0.91700
C2518       C  0.51156384  0.48467474  0.50661613     1.17300
H2519       H  0.56695505  0.57049200  0.60998082     0.33300
H2520       H  0.52706011  0.35046713  0.62444426     0.44100
H2521       H  0.96470514  0.50948511  0.54950899     0.37700
H2522       H  0.96151156  0.52783666  0.68628579     0.34100
H2523       H  0.60640370  0.40709749  0.66399342     0.25900
H2524       H  0.98603716  0.32615817  0.72595745     0.31900
H2525       H  0.91436151  0.44713218  0.66646871     0.37800
H2526       H  0.59302784  0.49724558  0.56267201     0.32200
H2527       H  0.53077684  0.65952348  0.51636087     0.31100
H2528       H  0.98093639  0.66515261  0.56324278     0.32800
H2529       H  0.89677554  0.56431504  0.58474654     0.31800
H2530       H  0.57863148  0.35315631  0.58541538     0.35800
H2531       H  0.50342213  0.30788475  0.53130408     0.28500
H2532       H  0.50934848  0.68355617  0.70364702     0.32700
H2533       H  0.93149235  0.62225843  0.65950019     0.35600
H2534       H  0.55690359  0.61512496  0.51137655     0.28200
H2535       H  0.53326154  0.33146291  0.54104802     0.41100
H2536       H  0.53578377  0.36677375  0.70575208     0.31100
H2537       H  0.58036442  0.42109416  0.68997575     0.38700
H2538       H  0.92167515  0.56180414  0.55601667     0.30600
H2539       H  0.95979804  0.36856508  0.73257962     0.30600
H2540       H  0.97912787  0.63123683  0.71304844     0.30900
Zr2541     Zr  0.99336042  0.39109955  0.83570174     2.17500
O2542       O  0.51065517  0.29536377  0.81950477    -0.51400
O2543       O  0.94998983  0.37514810  0.80493975    -0.74700
O2544       O  0.96289215  0.33133939  0.87687267    -0.81400
O2545       O  0.54206002  0.45485344  0.77213307    -0.83200
O2546       O  0.93932463  0.39445880  0.91355851    -0.78800
O2547       O  0.00309779  0.39902619  0.77323897    -0.90400
O2548       O  0.92895541  0.46596545  0.80974427    -0.76400
O2549       O  0.95932562  0.44463861  0.87123113    -0.85900
O2550       O  0.98852029  0.48863302  0.81275603    -0.85600
O2551       O  0.51383396  0.39757138  0.88914606    -0.72300
O2552       O  0.54038574  0.43677238  0.83459090    -0.84500
Zr2553     Zr  0.52135663  0.59231131  0.90084286     2.26400
Zr2554     Zr  0.97986063  0.44912539  0.92508631     2.06300
Zr2555     Zr  0.53491627  0.53366210  0.81087309     2.10000
Zr2556     Zr  0.95405193  0.53840592  0.84742917     1.78800
O2557       O  0.57779681  0.53391831  0.77184930    -0.93300
O2558       O  0.91038308  0.53296399  0.88481039    -0.41100
O2559       O  0.00067592  0.58653581  0.84674699    -0.77700
O2560       O  0.97385810  0.54768388  0.90284465    -0.96400
O2561       O  0.52449043  0.49493105  0.92151699    -0.89700
O2562       O  0.55555883  0.53958253  0.86487338    -0.92600
C2563       C  0.93040337  0.41196496  0.79743748     1.01200
C2564       C  0.51963629  0.44243361  0.75785876     1.14100
C2565       C  0.94148919  0.34556925  0.89818970     1.04900
O2566       O  0.94538846  0.44156457  0.97469858    -0.94700
O2567       O  0.97816341  0.51962505  0.96932760    -0.90500
O2568       O  0.52243473  0.55392042  0.96034714    -0.83600
C2569       C  0.50299597  0.52595055  0.97887877     1.11500
O2570       O  0.58078884  0.34761469  0.88249795    -0.96700
Zr2571     Zr  0.56048417  0.44646176  0.88988250     1.88900
O2572       O  0.56427210  0.61391019  0.93060625    -0.73300
O2573       O  0.49060272  0.36808725  0.95878149    -0.52600
O2574       O  0.56830936  0.39422656  0.94286422    -0.97300
O2575       O  0.60682937  0.45610351  0.85788704    -0.54500
O2576       O  0.58408961  0.52166705  0.92826682    -0.73800
C2577       C  0.58331896  0.57682234  0.93923404     0.98500
O2578       O  0.99923014  0.68080119  0.92386103    -0.62700
O2579       O  0.01391628  0.59475650  0.76934869    -0.57500
O2580       O  0.55098428  0.65558786  0.86071516    -0.94200
O2581       O  0.56771803  0.61054176  0.81130703    -0.92600
O2582       O  0.94157794  0.59095028  0.79616875    -0.92900
O2583       O  0.93393528  0.63771956  0.85201768    -0.91700
C2584       C  0.56818882  0.65119606  0.83316191     1.17300
H2585       H  0.98054243  0.49002662  0.79081054     0.33300
H2586       H  0.96086943  0.57066432  0.91787281     0.44100
H2587       H  0.57456506  0.55637189  0.86411714     0.37700
H2588       H  0.51559959  0.35751106  0.89729961     0.34100
H2589       H  0.91307608  0.49852338  0.89986643     0.25900
H2590       H  0.48471667  0.33236910  0.94641305     0.31900
H2591       H  0.56115041  0.42150119  0.96134497     0.37800
H2592       H  0.94956223  0.56701564  0.77656078     0.32200
H2593       H  0.50211028  0.62961420  0.78547399     0.31100
H2594       H  0.57191814  0.55351790  0.75093742     0.32800
H2595       H  0.60771743  0.42325580  0.84110483     0.31800
H2596       H  0.94350309  0.65613194  0.87113161     0.35800
H2597       H  0.01144661  0.69323961  0.94222775     0.28500
H2598       H  0.49781285  0.28093877  0.80224908     0.32700
H2599       H  0.56620059  0.32510963  0.87072563     0.35600
H2600       H  0.02864328  0.62533020  0.76354538     0.28200
H2601       H  0.00334038  0.70995758  0.90527443     0.41100
H2602       H  0.92837080  0.46433342  0.96859058     0.31100
H2603       H  0.91097835  0.56755521  0.90026411     0.38700
H2604       H  0.62092532  0.44544369  0.87457644     0.30600
H2605       H  0.51179722  0.36669824  0.95764528     0.30600
H2606       H  0.50557226  0.27096644  0.84006731     0.30900
N2607       N  0.62912443  0.63500541  0.70098673    -0.03600
C2608       C  0.60597823  0.62558264  0.68131423    -0.01000
C2609       C  0.61307801  0.63873823  0.64797254    -0.23900
C2610       C  0.64089468  0.64670666  0.64458148    -0.24100
C2611       C  0.65119174  0.63175891  0.67547512    -0.01100
H2612       H  0.60147131  0.62696056  0.62629980     0.12700
H2613       H  0.65150415  0.64209627  0.61951355     0.12700
N2614       N  0.62595408  0.63837429  0.95804450    -0.03600
C2615       C  0.60455241  0.59685099  0.96522995    -0.01000
C2616       C  0.61583711  0.55066782  0.98318100    -0.23900
C2617       C  0.64494226  0.55494819  0.97780075    -0.24100
C2618       C  0.65034170  0.60414680  0.95734975    -0.01100
H2619       H  0.60485576  0.50980997  0.99035804     0.12700
H2620       H  0.65941262  0.51799121  0.98032551     0.12700
Zr2621     Zr  0.81134567  0.48634115  0.63433550     2.17500
O2622       O  0.85489983  0.53683238  0.64867388    -0.51400
O2623       O  0.82706128  0.38987248  0.65284247    -0.74700
O2624       O  0.80668925  0.47527191  0.69716730    -0.81400
O2625       O  0.82657651  0.45870421  0.53143484    -0.83200
O2626       O  0.76210111  0.43780243  0.70450891    -0.78800
O2627       O  0.84628249  0.46111691  0.58271086    -0.90400
O2628       O  0.79023410  0.32804898  0.64196467    -0.76400
O2629       O  0.76809867  0.43882721  0.65517023    -0.85900
O2630       O  0.79112161  0.43594713  0.58991784    -0.85600
O2631       O  0.77735041  0.56094088  0.65702716    -0.72300
O2632       O  0.80093325  0.56629485  0.59661266    -0.84500
Zr2633     Zr  0.70834106  0.53058977  0.58798894     2.26400
Zr2634     Zr  0.73342246  0.50947695  0.67650004     2.06300
Zr2635     Zr  0.78376126  0.51206927  0.54972697     2.10000
Zr2636     Zr  0.75144138  0.38202392  0.61174997     1.78800
O2637       O  0.82278254  0.56594993  0.51905429    -0.93300
O2638       O  0.72575913  0.32074394  0.65491151    -0.41100
O2639       O  0.74186636  0.45577240  0.56874862    -0.77700
O2640       O  0.71563298  0.45533669  0.62971677    -0.96400
O2641       O  0.72388682  0.58107219  0.63504907    -0.89700
O2642       O  0.75009383  0.58485657  0.57202252    -0.92600
C2643       C  0.81522386  0.33859969  0.65372050     1.01200
C2644       C  0.84472027  0.43961776  0.55151330     1.14100
C2645       C  0.78601534  0.45130931  0.71596160     1.04900
O2646       O  0.69550402  0.45056971  0.70595481    -0.94700
O2647       O  0.68868957  0.56312909  0.69374855    -0.90500
O2648       O  0.68153772  0.57232337  0.63845101    -0.83600
C2649       C  0.67426942  0.58473879  0.67013824     1.11500
O2650       O  0.79950188  0.70285974  0.64071968    -0.96700
Zr2651     Zr  0.76407601  0.63719074  0.61800913     1.88900
O2652       O  0.68979993  0.62315080  0.57038749    -0.73300
O2653       O  0.74690649  0.58537567  0.71567926    -0.52600
O2654       O  0.74571822  0.68440509  0.67085032    -0.97300
O2655       O  0.78438294  0.70796150  0.57577230    -0.54500
O2656       O  0.71889497  0.68689553  0.59725478    -0.73800
C2657       C  0.69639549  0.67497102  0.58005632     0.98500
O2658       O  0.66465084  0.48026893  0.57426768    -0.62700
O2659       O  0.77044611  0.44008320  0.50712627    -0.57500
O2660       O  0.71450994  0.55006808  0.52628719    -0.94200
O2661       O  0.76083351  0.57793511  0.51388591    -0.92600
O2662       O  0.77119097  0.31728374  0.56614026    -0.92900
O2663       O  0.71371265  0.32448096  0.58785396    -0.91700
C2664       C  0.73509778  0.57177250  0.50640290     1.17300
H2665       H  0.80192394  0.40390377  0.57990685     0.33300
H2666       H  0.69763915  0.43632284  0.63666167     0.44100
H2667       H  0.74539146  0.62019057  0.55988044     0.37700
H2668       H  0.78643825  0.58011821  0.67544467     0.34100
H2669       H  0.73521955  0.28157459  0.65270485     0.25900
H2670       H  0.72912298  0.60176078  0.72715769     0.31900
H2671       H  0.72457617  0.68203292  0.67063654     0.37800
H2672       H  0.78768173  0.29721494  0.57569009     0.32200
H2673       H  0.77853629  0.40199964  0.51441902     0.31100
H2674       H  0.83013353  0.59311290  0.53624326     0.32800
H2675       H  0.76844364  0.73518080  0.57142176     0.31800
H2676       H  0.70933231  0.34632316  0.56692856     0.35800
H2677       H  0.66033082  0.49669746  0.55175147     0.28500
H2678       H  0.85084991  0.55051772  0.67255829     0.32700
H2679       H  0.79330690  0.74356192  0.63553598     0.35600
H2680       H  0.74944859  0.43432440  0.51002868     0.28200
H2681       H  0.67074058  0.43901453  0.56925653     0.41100
H2682       H  0.70382719  0.41058842  0.70807701     0.31100
H2683       H  0.73160645  0.33640375  0.67696860     0.38700
H2684       H  0.78773575  0.68506627  0.55429379     0.30600
H2685       H  0.75645148  0.56236859  0.73285340     0.30600
H2686       H  0.85536537  0.57352446  0.63481340     0.30900
Zr2687     Zr  0.77501942  0.40219245  0.83411121     2.17500
O2688       O  0.75547340  0.30714642  0.81923852    -0.51400
O2689       O  0.82267944  0.38164488  0.80816895    -0.74700
O2690       O  0.77792295  0.40720422  0.77099565    -0.81400
O2691       O  0.79553971  0.38367604  0.93220347    -0.83200
O2692       O  0.78849364  0.50352594  0.76542612    -0.78800
O2693       O  0.79399946  0.33867428  0.88032831    -0.90400
O2694       O  0.84194500  0.47410793  0.80982697    -0.76400
O2695       O  0.78971331  0.49600693  0.81247356    -0.85900
O2696       O  0.80078431  0.45383553  0.87406913    -0.85600
O2697       O  0.73227428  0.45647435  0.82090429    -0.72300
O2698       O  0.73863364  0.41464753  0.87982091    -0.84500
Zr2699     Zr  0.73796636  0.61173787  0.88794414     2.26400
Zr2700     Zr  0.74936678  0.55105762  0.79880015     2.06300
Zr2701     Zr  0.76566980  0.46479499  0.92031762     2.10000
Zr2702     Zr  0.81600363  0.54520106  0.85101274     1.78800
O2703       O  0.74108261  0.38318181  0.95064277    -0.93300
O2704       O  0.83791233  0.60626450  0.80495451    -0.41100
O2705       O  0.78139419  0.55958581  0.89910119    -0.77700
O2706       O  0.77374689  0.60319863  0.84108550    -0.96400
O2707       O  0.71424122  0.56356735  0.84510759    -0.89700
O2708       O  0.72361057  0.51651256  0.90792174    -0.92600
C2709       C  0.84194822  0.41964703  0.79856226     1.01200
C2710       C  0.80368370  0.34385307  0.91082162     1.14100
C2711       C  0.78591603  0.45234104  0.75257588     1.04900
O2712       O  0.77066731  0.63754025  0.76893895    -0.94700
O2713       O  0.71691892  0.63108553  0.79106485    -0.90500
O2714       O  0.71455693  0.67163731  0.84460450    -0.83600
C2715       C  0.70674695  0.66809894  0.81332499     1.11500
O2716       O  0.67230907  0.39235291  0.84082582    -0.96700
Zr2717     Zr  0.69660099  0.47357923  0.86772176     1.88900
O2718       O  0.69129396  0.62734129  0.91913339    -0.73300
O2719       O  0.71608783  0.51282871  0.75914075    -0.52600
O2720       O  0.66077309  0.51168587  0.83113041    -0.97300
O2721       O  0.67265336  0.40699271  0.90949374    -0.54500
O2722       O  0.66735314  0.54152197  0.90919971    -0.73800
C2723       C  0.67002434  0.59193366  0.92537006     0.98500
O2724       O  0.75889306  0.70643463  0.90139984    -0.62700
O2725       O  0.80152227  0.49957082  0.95812479    -0.57500
O2726       O  0.73680309  0.61000033  0.95040363    -0.94200
O2727       O  0.74053731  0.51279272  0.96547927    -0.92600
O2728       O  0.85192097  0.51728556  0.88990369    -0.92900
O2729       O  0.84339099  0.62777139  0.87180669    -0.91700
C2730       C  0.73518084  0.56665531  0.97176593     1.17300
H2731       H  0.81809813  0.43391957  0.87935423     0.33300
H2732       H  0.77935153  0.64220513  0.83302888     0.44100
H2733       H  0.70975883  0.51554670  0.92708609     0.37700
H2734       H  0.72323223  0.43335359  0.80401251     0.34100
H2735       H  0.85882836  0.60221717  0.80689776     0.25900
H2736       H  0.72377792  0.47320859  0.75313066     0.31900
H2737       H  0.65572757  0.55143361  0.84036075     0.37800
H2738       H  0.86181994  0.48292231  0.87868844     0.32200
H2739       H  0.82027156  0.48874047  0.94647435     0.31100
H2740       H  0.72237188  0.39971841  0.95944218     0.32800
H2741       H  0.67419335  0.42677086  0.93185749     0.31800
H2742       H  0.82877731  0.65388689  0.88352450     0.35800
H2743       H  0.76885129  0.69908033  0.92249123     0.28500
H2744       H  0.73809199  0.31709272  0.80737186     0.32700
H2745       H  0.68696425  0.36075178  0.83793796     0.35600
H2746       H  0.80099835  0.54332860  0.95720829     0.28200
H2747       H  0.77461901  0.71190503  0.88339060     0.41100
H2748       H  0.79122947  0.62781299  0.76450450     0.31100
H2749       H  0.83438496  0.58440384  0.78374313     0.38700
H2750       H  0.68557919  0.37235738  0.91017132     0.30600
H2751       H  0.69790409  0.50569397  0.77307983     0.30600
H2752       H  0.74801302  0.29074187  0.84157782     0.30900
loop_ 
_geom_bond_atom_site_label_1 
_geom_bond_atom_site_label_2 
_geom_bond_distance 
_geom_bond_site_symmetry_2 
_ccdc_geom_bond_type 
C1            C7   1.557       .  S
C1            C5   1.556       .  S
C1          C690   1.564       .  S
C1          N258   1.566       .  S
C2          C689   1.565   1_554  S
C2            H9   1.082       .  S
C2            C3   1.404       .  D
C3            C4   1.590       .  S
C3           N49   1.512       .  S
C4            C6   1.595       .  S
C4          C696   1.628   1_554  S
C4           H10   1.110       .  S
C5           H11   1.086       .  S
C5          C694   1.381       .  D
C6          C693   1.383   1_554  D
C6           N77   1.507       .  S
C7           H12   1.081       .  S
C7            C8   1.370       .  D
C8          C692   1.628       .  S
C8          N550   1.513       .  S
C13          C14   1.548       .  S
C13          C19   1.560       .  S
C13          C17   1.560       .  S
C13         N543   1.555       .  S
C14          H21   1.086       .  S
C14          C15   1.387       .  D
C15          C16   1.590       .  S
C15          N84   1.496       .  S
C16          C20   1.608       .  S
C16          C18   1.581       .  S
C16          H22   1.110       .  S
C17          H23   1.080       .  S
C17          C18   1.397       .  D
C18          N56   1.507       .  S
C19          H24   1.077       .  S
C19          C20   1.376       .  D
C20         N251   1.505       .  S
C25          C31   1.556       .  S
C25         C714   1.563   1_554  S
C25         C717   1.555   1_554  S
C25          N63   1.563       .  S
C26         C713   1.564       .  S
C26          H33   1.081       .  S
C26          C27   1.406       .  D
C27          C28   1.587       .  S
C27         N112   1.510       .  S
C28          C32   1.628       .  S
C28          C30   1.597       .  S
C28          H34   1.110       .  S
C29         C713   1.558       .  S
C29          H35   1.086       .  S
C29          C30   1.382       .  D
C30         N404   1.507       .  S
C31          H36   1.081       .  S
C31         C720   1.370       .  D
C32         C719   1.370       .  D
C32         N779   1.512       .  S
C37          C38   1.549       .  S
C37          C43   1.559       .  S
C37          C41   1.559       .  S
C37          N98   1.552       .  S
C38          H45   1.086       .  S
C38          C39   1.386       .  D
C39          C40   1.589       .  S
C39         N397   1.498       .  S
C40          C44   1.610       .  S
C40          C42   1.582       .  S
C40          H46   1.110       .  S
C41          H47   1.081       .  S
C41          C42   1.396       .  D
C42         N105   1.504       .  S
C43          H48   1.078       .  S
C43          C44   1.373       .  D
C44          N70   1.505       .  S
N49          C53   1.359       .  A
N49          C50   1.391       .  A
C50          C51   1.381       .  A
C50         C434   1.512       .  S
C51          C52   1.340       .  A
C51          H54   1.080       .  S
C52          C53   1.370       .  A
C52          H55   1.084       .  S
C53         C143   1.443       .  S
N56          C60   1.359       .  A
N56          C57   1.383       .  A
C57          C58   1.382       .  A
C57         C213   1.491       .  S
C58          C59   1.337       .  A
C58          H61   1.078       .  S
C59          C60   1.371       .  A
C59          H62   1.085       .  S
C60         C520   1.450       .  S
N63          C67   1.384       .  A
N63          C64   1.379       .  A
C64          C65   1.374       .  A
C64         C447   1.495       .  S
C65          C66   1.347       .  A
C65          H68   1.082       .  S
C66          C67   1.358       .  A
C66          H69   1.070       .  S
C67         C580   1.529       .  S
N70          C74   1.372       .  A
N70          C71   1.386       .  A
C71          C72   1.385       .  A
C71         C499   1.539       .  S
C72          C73   1.364       .  A
C72          H75   1.083       .  S
C73          C74   1.380       .  A
C73          H76   1.083       .  S
C74         C645   1.509       .  S
N77          C81   1.370       .  A
N77          C78   1.368       .  A
C78          C79   1.384       .  A
C78         C593   1.497       .  S
C79          C80   1.348       .  A
C79          H82   1.076       .  S
C80          C81   1.370       .  A
C80          H83   1.085       .  S
C81         C288   1.493       .  S
N84          C88   1.369       .  A
N84          C85   1.369       .  A
C85          C86   1.379       .  A
C85         C353   1.509       .  S
C86          C87   1.347       .  A
C86          H89   1.053       .  S
C87          C88   1.362       .  A
C87          H90   1.085       .  S
C88         C651   1.478       .  S
N91         C720   1.513       .  S
N91          C95   1.373       .  A
N91          C92   1.386       .  A
C92          C93   1.383   1_554  A
C92         C155   1.543       .  S
C93          C94   1.367   1_556  A
C93          H96   1.083       .  S
C94          C95   1.383       .  A
C94          H97   1.083   1_554  S
C95         C301   1.522       .  S
N98         C102   1.383       .  A
N98          C99   1.389       .  A
C99         C100   1.355       .  A
C99         C207   1.495       .  S
C100        C101   1.309       .  A
C100        H103   1.074       .  S
C101        C102   1.374       .  A
C101        H104   1.070       .  S
C102        C359   1.513       .  S
N105        C109   1.359       .  A
N105        C106   1.380       .  A
C106        C107   1.381       .  A
C106        C439   1.487       .  S
C107        C108   1.337       .  A
C107        H110   1.078       .  S
C108        C109   1.371       .  A
C108        H111   1.085       .  S
C109        C162   1.449       .  S
N112        C116   1.354       .  A
N112        C113   1.392       .  A
C113        C114   1.382       .  A
C113        C208   1.513       .  S
C114        C115   1.340       .  A
C114        H117   1.080       .  S
C115        C116   1.370       .  A
C115        H118   1.083       .  S
C116        C501   1.439       .  S
Zr119       O121   2.457       .  S
Zr119       O122   2.473       .  S
Zr119       O125   2.461       .  S
Zr119       O127   2.367       .  S
Zr119       O128   2.399       .  S
Zr119      O1505   2.431   1_455  S
Zr119      O1506   2.435   1_455  S
Zr119      O1496   2.435   1_455  S
O120      Zr1495   2.435       .  S
O120        H184   0.990       .  S
O120       H1552   0.991       .  S
O121        C141   1.287       .  A
O122        C143   1.297       .  A
O123       Zr133   2.349   1_565  S
O123       C1518   1.255       .  A
O124       Zr132   2.342       .  S
O124        C143   1.259       .  A
O125        C142   1.283   1_455  A
O126       Zr134   2.542   1_565  S
O126        C141   1.310       .  A
O127       Zr132   2.375       .  S
O127       Zr134   2.336   1_565  S
O128       Zr134   2.320   1_565  S
O128      Zr1509   2.382   1_465  S
O128        H163   0.962       .  S
O129       Zr149   2.444       .  S
O129      Zr1495   2.429       .  S
O129      Zr1508   2.405       .  S
O129        H166   0.965       .  S
O130       Zr133   2.400   1_565  S
O130       Zr149   2.433       .  S
O130      Zr1495   2.440       .  S
Zr131       O150   2.443       .  S
Zr131       O158   2.474       .  S
Zr131       O146   2.482       .  S
Zr131       O139   2.362   1_545  S
Zr131       O140   2.376       .  S
Zr131      O1513   2.414       .  S
Zr131      O1514   2.436       .  S
Zr131      O1532   2.434       .  S
Zr132       O145   2.349   1_565  S
Zr132       O138   2.417   1_565  S
Zr132      O1505   2.412   1_455  S
Zr132      O1515   2.378   1_455  S
Zr132       O144   2.437       .  S
Zr132      O1527   2.444       .  S
Zr133       O159   2.321       .  S
Zr133       O140   2.393       .  S
Zr133      O1504   2.385   1_545  S
Zr133      O1513   2.395       .  S
Zr133       O135   2.433       .  S
Zr133      O1533   2.438       .  S
Zr134       O137   2.435       .  S
Zr134       O138   2.426       .  S
Zr134       O160   2.439       .  S
Zr134       O161   2.438       .  S
Zr134       O136   2.430       .  S
O135        H172   0.987       .  S
O136        H167   0.990       .  S
O136        H181   0.990       .  S
O137      Zr1507   2.415   1_455  S
O137      Zr1509   2.397   1_455  S
O138      Zr1507   2.434   1_455  S
O138        H164   0.966       .  S
O139       Zr149   2.298       .  S
O139      Zr1508   2.369       .  S
O140       Zr149   2.339   1_545  S
O140        H165   0.965       .  S
C141        C252   1.537       .  S
C142        C209   1.484       .  S
C142       O1499   1.255       .  A
O144        H180   0.991       .  S
O145        C147   1.256       .  A
O146       C1523   1.285       .  A
C147        C916   1.475   1_444  S
C147       O1522   1.287   1_455  A
O148       Zr149   2.435       .  S
O148        H177   0.990       .  S
Zr149       O154   2.572   1_565  S
Zr149       O152   2.436       .  S
Zr149       O153   2.428       .  S
O150        C155   1.285       .  A
O151      Zr1508   2.441       .  S
O151        H183   0.989       .  S
O151       H1544   0.990       .  S
O152        H169   0.990       .  S
O153        H173   0.990       .  S
O153        H182   0.990       .  S
O154        C155   1.318       .  A
O156      Zr1507   2.433   1_455  S
O156        H175   0.990       .  S
O156        H179   0.990   1_455  S
O157      Zr1509   2.437       .  S
O157        H171   0.989   1_655  S
O157        H178   0.990       .  S
O158        C162   1.302       .  A
O159        C162   1.257       .  A
O160        H170   0.991       .  S
O161        H174   0.990       .  S
H168       O1527   0.990       .  S
H176       O1496   0.990   1_455  S
Zr185       O187   2.365       .  S
Zr185       O188   2.536       .  S
Zr185       O191   2.602       .  S
Zr185       O193   2.378   1_545  S
Zr185       O194   2.368       .  S
Zr185      O1571   2.445       .  S
Zr185      O1572   2.423       .  S
Zr185      O1562   2.431       .  S
O186      Zr1561   2.433   1_455  S
O186        H242   0.990   1_455  S
O186        H250   0.990       .  S
O187        C207   1.270       .  A
O188       C1585   1.297   1_545  A
O189       Zr199   2.380       .  S
O189        C208   1.262       .  A
O190       Zr198   2.342       .  S
O190        C209   1.254   1_455  A
O191        C208   1.327       .  A
O192       Zr200   2.580   1_545  S
O192        C207   1.321       .  A
O193       Zr200   2.312       .  S
O193      Zr1574   2.378       .  S
O194       Zr199   2.381       .  S
O194       Zr200   2.325   1_545  S
O194        H229   0.958       .  S
O195       Zr198   2.436   1_545  S
O195       Zr215   2.426       .  S
O195      Zr1561   2.446   1_455  S
O195        H232   0.966       .  S
O196       Zr215   2.446       .  S
O196      Zr1561   2.418   1_455  S
O196      Zr1575   2.387   1_455  S
Zr197       O216   2.391       .  S
Zr197       O224   2.470       .  S
Zr197       O212   2.572       .  S
Zr197       O205   2.332       .  S
Zr197       O206   2.409   1_565  S
Zr197      O1579   2.434   1_455  S
Zr197      O1580   2.419   1_455  S
Zr197      O1598   2.430   1_455  S
Zr198       O211   2.365       .  S
Zr198       O205   2.361       .  S
Zr198      O1569   2.375   1_455  S
Zr198      O1580   2.398   1_455  S
Zr198       O217   2.450       .  S
Zr198      O1586   2.444   1_455  S
Zr199       O225   2.347   1_545  S
Zr199       O203   2.418   1_545  S
Zr199      O1572   2.387       .  S
Zr199      O1582   2.394       .  S
Zr199       O223   2.451       .  S
Zr199      O1577   2.437       .  S
Zr200       O203   2.440       .  S
Zr200       O204   2.453       .  S
Zr200       O226   2.435       .  S
Zr200       O227   2.436       .  S
Zr200       O202   2.438       .  S
O201      Zr1575   2.436   1_455  S
O201        H238   0.991       .  S
O202        H233   0.990       .  S
O202        H247   0.990       .  S
O203      Zr1573   2.441       .  S
O204      Zr1573   2.419       .  S
O204      Zr1574   2.394       .  S
O204        H230   0.966       .  S
O205       Zr215   2.322   1_565  S
O206       Zr215   2.341       .  S
O206      Zr1575   2.391   1_455  S
O206        H231   0.965       .  S
C209       O1564   1.295   1_565  A
O210      Zr1574   2.444       .  S
O210        H246   0.989       .  S
O211        C213   1.264       .  A
O212        C213   1.320       .  A
O214       Zr215   2.436       .  S
O214        H243   0.990       .  S
Zr215       O220   2.546   1_545  S
Zr215       O218   2.436   1_545  S
Zr215       O219   2.442       .  S
O216        C221   1.274       .  A
O217        H234   0.989       .  S
O217        H249   0.987       .  S
O218        H235   0.990       .  S
O219        H239   0.991       .  S
O219        H248   0.989       .  S
O220        C221   1.312       .  A
C221        C259   1.499       .  S
O222      Zr1573   2.430       .  S
O222        H241   0.990       .  S
O222        H245   0.990       .  S
O223        H237   0.991       .  S
O223        H244   0.990       .  S
O224        C228   1.284   1_455  A
O225       C1604   1.256       .  A
O226        H236   0.990   1_565  S
O227        H240   0.990       .  S
C228        C835   1.476   1_665  S
C228       O1601   1.256       .  A
N251        C255   1.372       .  A
N251        C252   1.386       .  A
C252        C253   1.385       .  A
C253        C254   1.364       .  A
C253        H256   1.084       .  S
C254        C255   1.381       .  A
C254        H257   1.083       .  S
C255        C287   1.508       .  S
N258        C262   1.386       .  A
N258        C259   1.380       .  A
C259        C260   1.374       .  A
C260        C261   1.349       .  A
C260        H263   1.082       .  S
C261        C262   1.357       .  A
C261        H264   1.071       .  S
C262        C354   1.533       .  S
Zr265       O267   2.434       .  S
Zr265       O268   2.468       .  S
Zr265       O271   2.518       .  S
Zr265       O273   2.361       .  S
Zr265       O274   2.351       .  S
Zr265       O275   2.432       .  S
Zr265       O276   2.400       .  S
Zr265       O266   2.421       .  S
O266        H322   0.990       .  S
O266        H330   0.990       .  S
O267        C287   1.283       .  A
O268        C289   1.289       .  A
O269       Zr279   2.373       .  S
O269        C288   1.269       .  A
O270       Zr278   2.415       .  S
O270        C289   1.269   1_545  A
O271        C288   1.311       .  A
O272       Zr280   2.513   1_565  S
O272        C287   1.305       .  A
O273       Zr278   2.353   1_565  S
O273       Zr280   2.302   1_565  S
O274       Zr279   2.364       .  S
O274       Zr280   2.343   1_565  S
O274        H309   0.961       .  S
O275       Zr278   2.419   1_565  S
O275       Zr295   2.415       .  S
O275        H312   0.963       .  S
O276       Zr279   2.381       .  S
O276       Zr295   2.452       .  S
Zr277       O296   2.448       .  S
Zr277       O304   2.445       .  S
Zr277       O292   2.494       .  S
Zr277       O283   2.418       .  S
Zr277       O284   2.397       .  S
Zr277       O285   2.345       .  S
Zr277       O286   2.369       .  S
Zr277       O302   2.428       .  S
Zr278       O291   2.394       .  S
Zr278       O284   2.391       .  S
Zr278       O285   2.377       .  S
Zr278       O297   2.438       .  S
Zr278       O290   2.449       .  S
Zr279       O305   2.312   1_565  S
Zr279       O283   2.398   1_565  S
Zr279       O286   2.371   1_565  S
Zr279       O281   2.437       .  S
Zr279       O303   2.444   1_565  S
Zr280       O283   2.410       .  S
Zr280       O284   2.427       .  S
Zr280       O306   2.434       .  S
Zr280       O307   2.436       .  S
Zr280       O282   2.434       .  S
O281        H318   0.990       .  S
O282        H313   0.990       .  S
O282        H327   0.990       .  S
O284        H310   0.966       .  S
O285       Zr295   2.344   1_545  S
O286       Zr295   2.292   1_545  S
O286        H311   0.954       .  S
C289        C355   1.434       .  S
O290        H326   0.990       .  S
O291        C293   1.275       .  A
O292        C293   1.305       .  A
C293        C398   1.482       .  S
O294       Zr295   2.434       .  S
O294        H323   0.990       .  S
Zr295       O300   2.559   1_565  S
Zr295       O298   2.437   1_565  S
Zr295       O299   2.439       .  S
O296        C301   1.286       .  A
O297        H314   0.987   1_545  S
O297        H329   0.990       .  S
O298        H315   0.990       .  S
O299        H319   0.990       .  S
O299        H328   0.990       .  S
O300        C301   1.312       .  A
O302        H321   0.990       .  S
O302        H325   0.989       .  S
O303        H317   0.990   1_545  S
O303        H324   0.989       .  S
O304        C308   1.288       .  A
O305        C308   1.262       .  A
O306        H316   0.991   1_545  S
O307        H320   0.990       .  S
C308       C1062   1.376   1_554  S
Zr331       O333   2.414       .  S
Zr331       O334   2.472       .  S
Zr331       O337   2.570       .  S
Zr331       O339   2.381       .  S
Zr331       O340   2.341       .  S
Zr331       O341   2.437   1_565  S
Zr331       O342   2.403   1_565  S
Zr331       O332   2.436   1_565  S
O332        H388   0.990       .  S
O332        H396   0.990       .  S
O333        C353   1.281       .  A
O334        C355   1.291       .  A
O335       Zr345   2.403   1_565  S
O335        C354   1.272       .  A
O336       Zr344   2.409   1_565  S
O336        C355   1.270       .  A
O337        C354   1.323       .  A
O338       Zr346   2.546       .  S
O338        C353   1.308       .  A
O339       Zr344   2.382   1_565  S
O339       Zr346   2.311       .  S
O340       Zr345   2.373   1_565  S
O340       Zr346   2.334       .  S
O340        H375   0.952       .  S
O341       Zr344   2.430       .  S
O341       Zr361   2.410       .  S
O341        H378   0.965       .  S
O342       Zr345   2.391       .  S
O342       Zr361   2.456       .  S
Zr343       O362   2.386       .  S
Zr343       O370   2.449       .  S
Zr343       O358   2.457       .  S
Zr343       O349   2.394   1_545  S
Zr343       O350   2.396   1_545  S
Zr343       O351   2.326       .  S
Zr343       O352   2.356       .  S
Zr343       O368   2.430   1_545  S
Zr344       O357   2.459       .  S
Zr344       O350   2.403   1_545  S
Zr344       O351   2.355       .  S
Zr344       O363   2.420       .  S
Zr344       O356   2.441   1_545  S
Zr345       O371   2.354       .  S
Zr345       O349   2.410   1_545  S
Zr345       O352   2.401       .  S
Zr345       O347   2.436       .  S
Zr345       O369   2.441   1_545  S
Zr346       O349   2.433       .  S
Zr346       O350   2.422       .  S
Zr346       O372   2.436       .  S
Zr346       O373   2.433       .  S
Zr346       O348   2.434       .  S
O347        H384   0.990       .  S
O348        H379   0.990       .  S
O348        H393   0.990       .  S
O350        H376   0.966       .  S
O351       Zr361   2.319       .  S
O352       Zr361   2.290       .  S
O352        H377   0.963       .  S
O356        H392   0.989       .  S
O357        C359   1.277       .  A
O358        C359   1.295       .  A
O360       Zr361   2.432       .  S
O360        H389   0.990       .  S
Zr361       O366   2.575       .  S
Zr361       O364   2.433       .  S
Zr361       O365   2.433       .  S
O362        C367   1.276       .  A
O363        H380   0.988       .  S
O363        H395   0.983       .  S
O364        H381   0.990       .  S
O365        H385   0.990       .  S
O365        H394   0.990       .  S
O366        C367   1.316       .  A
C367        C405   1.503       .  S
O368        H387   0.990       .  S
O368        H391   0.990       .  S
O369        H383   0.990       .  S
O369        H390   0.988       .  S
O370        C374   1.290       .  A
O371        C374   1.265       .  A
O372        H382   0.990       .  S
O373        H386   0.990       .  S
C374        C996   1.375       .  S
N397        C401   1.371       .  A
N397        C398   1.371       .  A
C398        C399   1.363       .  A
C399        C400   1.349       .  A
C399        H402   1.085       .  S
C400        C401   1.380       .  A
C400        H403   1.056       .  S
C401        C579   1.512       .  S
N404        C408   1.371       .  A
N404        C405   1.369       .  A
C405        C406   1.385       .  A
C406        C407   1.350       .  A
C406        H409   1.077       .  S
C407        C408   1.370       .  A
C407        H410   1.086       .  S
C408        C646   1.495       .  S
Zr411       O413   2.376       .  S
Zr411       O414   2.526       .  S
Zr411       O417   2.590       .  S
Zr411       O419   2.377       .  S
Zr411       O420   2.375       .  S
Zr411      O1797   2.447   1_455  S
Zr411      O1798   2.421   1_455  S
Zr411      O1788   2.433   1_455  S
O412      Zr1787   2.436       .  S
O412        H476   0.990       .  S
O412       H1844   0.990       .  S
O413        C433   1.270       .  A
O414        C435   1.295       .  A
O415       Zr425   2.383       .  S
O415        C434   1.263       .  A
O416       Zr424   2.342       .  S
O416       C1811   1.254       .  A
O417        C434   1.325       .  A
O418       Zr426   2.578       .  S
O418        C433   1.321       .  A
O419       Zr426   2.314       .  S
O419      Zr1800   2.378   1_455  S
O420       Zr425   2.384       .  S
O420       Zr426   2.333       .  S
O420        H455   0.958       .  S
O421       Zr424   2.435       .  S
O421       Zr441   2.427       .  S
O421      Zr1787   2.445       .  S
O421        H458   0.966       .  S
O422       Zr441   2.444       .  S
O422      Zr1787   2.419       .  S
O422      Zr1801   2.385       .  S
Zr423       O442   2.391       .  S
Zr423       O450   2.473       .  S
Zr423       O438   2.563       .  S
Zr423       O431   2.336       .  S
Zr423       O432   2.407       .  S
Zr423      O1805   2.436       .  S
Zr423      O1806   2.418       .  S
Zr423      O1824   2.432       .  S
Zr424       O437   2.362       .  S
Zr424       O431   2.362       .  S
Zr424      O1795   2.374       .  S
Zr424      O1806   2.396       .  S
Zr424       O443   2.447       .  S
Zr424      O1812   2.443       .  S
Zr425       O451   2.348       .  S
Zr425       O429   2.422       .  S
Zr425      O1798   2.382   1_455  S
Zr425      O1808   2.391   1_455  S
Zr425       O449   2.450       .  S
Zr425      O1803   2.436   1_455  S
Zr426       O429   2.440       .  S
Zr426       O430   2.450       .  S
Zr426       O452   2.433       .  S
Zr426       O453   2.437       .  S
Zr426       O428   2.436       .  S
O427      Zr1801   2.436       .  S
O427        H464   0.990       .  S
O428        H459   0.990       .  S
O428        H473   0.990       .  S
O429      Zr1799   2.438   1_455  S
O430      Zr1799   2.418   1_455  S
O430      Zr1800   2.397   1_455  S
O430        H456   0.966       .  S
O431       Zr441   2.327       .  S
O432       Zr441   2.340       .  S
O432      Zr1801   2.388       .  S
O432        H457   0.965       .  S
C433        C544   1.500       .  S
C435        C500   1.483       .  S
C435       O1792   1.253   1_455  A
O436      Zr1800   2.445   1_455  S
O436        H472   0.988       .  S
O437        C439   1.263       .  A
O438        C439   1.318       .  A
O440       Zr441   2.435       .  S
O440        H469   0.990       .  S
Zr441       O446   2.537       .  S
Zr441       O444   2.433       .  S
Zr441       O445   2.441       .  S
O442        C447   1.274       .  A
O443        H460   0.989       .  S
O443        H475   0.986       .  S
O444        H461   0.990       .  S
O445        H465   0.991       .  S
O445        H474   0.989       .  S
O446        C447   1.310       .  A
O448      Zr1799   2.429   1_455  S
O448        H467   0.990       .  S
O448        H471   0.990       .  S
O449        H463   0.991       .  S
O449        H470   0.990       .  S
O450       C1830   1.285       .  A
O451        C454   1.257       .  A
O452        H462   0.990       .  S
O453        H466   0.990       .  S
C454       C1193   1.475   1_554  S
C454       O1826   1.283   1_455  A
H468       O1788   0.990   1_455  S
Zr477       O479   2.460       .  S
Zr477       O480   2.473       .  S
Zr477       O483   2.470       .  S
Zr477       O485   2.364       .  S
Zr477       O486   2.397       .  S
Zr477      O1863   2.434       .  S
Zr477      O1864   2.437       .  S
Zr477      O1854   2.434       .  S
O478      Zr1853   2.434   1_455  S
O478        H534   0.990   1_455  S
O478        H542   0.990       .  S
O479        C499   1.288       .  A
O480        C501   1.297       .  A
O481       Zr491   2.343       .  S
O481        C500   1.253       .  A
O482       Zr490   2.339       .  S
O482        C501   1.259       .  A
O483       C1876   1.284       .  A
O484       Zr492   2.546       .  S
O484        C499   1.311       .  A
O485       Zr490   2.378       .  S
O485       Zr492   2.329       .  S
O486       Zr492   2.324       .  S
O486      Zr1867   2.386       .  S
O486        H521   0.962       .  S
O487       Zr507   2.448       .  S
O487      Zr1853   2.431   1_455  S
O487      Zr1866   2.411   1_455  S
O487        H524   0.965       .  S
O488       Zr491   2.396       .  S
O488       Zr507   2.427       .  S
O488      Zr1853   2.437   1_455  S
Zr489       O508   2.434       .  S
Zr489       O516   2.471       .  S
Zr489       O504   2.486       .  S
Zr489       O497   2.359       .  S
Zr489       O498   2.379       .  S
Zr489      O1871   2.411   1_455  S
Zr489      O1872   2.435   1_455  S
Zr489      O1890   2.428   1_455  S
Zr490       O503   2.349       .  S
Zr490       O496   2.415       .  S
Zr490      O1863   2.409       .  S
Zr490      O1873   2.375       .  S
Zr490       O502   2.439       .  S
Zr490      O1885   2.444       .  S
Zr491       O517   2.316       .  S
Zr491       O498   2.390       .  S
Zr491      O1862   2.385   1_455  S
Zr491      O1871   2.391   1_455  S
Zr491       O493   2.438       .  S
Zr491      O1891   2.437       .  S
Zr492       O495   2.434       .  S
Zr492       O496   2.425       .  S
Zr492       O518   2.437       .  S
Zr492       O519   2.434       .  S
Zr492       O494   2.436       .  S
O493        H530   0.988       .  S
O494        H525   0.989       .  S
O494        H539   0.990       .  S
O495      Zr1865   2.415       .  S
O495      Zr1867   2.395       .  S
O496      Zr1865   2.430       .  S
O496        H522   0.966       .  S
O497       Zr507   2.300       .  S
O497      Zr1866   2.374   1_455  S
O498       Zr507   2.340       .  S
O498        H523   0.965       .  S
C500       O1859   1.284       .  A
O502        H538   0.991       .  S
O503       C1881   1.254       .  A
O504        C505   1.286       .  A
C505       C1142   1.474       .  S
C505       O1879   1.255   1_455  A
O506       Zr507   2.435       .  S
O506        H535   0.990       .  S
Zr507       O512   2.561       .  S
Zr507       O510   2.433       .  S
Zr507       O511   2.432       .  S
O508        C513   1.283       .  A
O509      Zr1866   2.444       .  S
O509        H526   0.990       .  S
O509        H541   0.989   1_655  S
O510        H527   0.990       .  S
O511        H531   0.990       .  S
O511        H540   0.990       .  S
O512        C513   1.315       .  A
C513        C551   1.535       .  S
O514      Zr1865   2.427       .  S
O514        H533   0.990       .  S
O514        H537   0.990       .  S
O515      Zr1867   2.442       .  S
O515        H536   0.990       .  S
O515       H1905   0.989       .  S
O516        C520   1.302       .  A
O517        C520   1.256       .  A
O518        H528   0.990       .  S
O519        H532   0.990       .  S
H529       O1891   0.990       .  S
N543        C547   1.383       .  A
N543        C544   1.391       .  A
C544        C545   1.357       .  A
C545        C546   1.310       .  A
C545        H548   1.074       .  S
C546        C547   1.374       .  A
C546        H549   1.072       .  S
C547        C585   1.512       .  S
N550        C554   1.375       .  A
N550        C551   1.383       .  A
C551        C552   1.383       .  A
C552        C553   1.365       .  A
C552        H555   1.083       .  S
C553        C554   1.382       .  A
C553        H556   1.083       .  S
C554        C659   1.524       .  S
Zr557       O559   2.428       .  S
Zr557       O560   2.465       .  S
Zr557       O563   2.559       .  S
Zr557       O565   2.379       .  S
Zr557       O566   2.338       .  S
Zr557       O567   2.440       .  S
Zr557       O568   2.406       .  S
Zr557       O558   2.432       .  S
O558        H614   0.990       .  S
O558        H622   0.990       .  S
O559        C579   1.283       .  A
O560        C581   1.290       .  A
O561       Zr571   2.403       .  S
O561        C580   1.272       .  A
O562       Zr570   2.421       .  S
O562        C581   1.271       .  A
O563        C580   1.321       .  A
O564       Zr572   2.542       .  S
O564        C579   1.308       .  A
O565       Zr570   2.379       .  S
O565       Zr572   2.311       .  S
O566       Zr571   2.375       .  S
O566       Zr572   2.332       .  S
O566        H601   0.952       .  S
O567       Zr570   2.433       .  S
O567       Zr587   2.415       .  S
O567        H604   0.965       .  S
O568       Zr571   2.392       .  S
O568       Zr587   2.455       .  S
Zr569       O588   2.373       .  S
Zr569       O596   2.450       .  S
Zr569       O584   2.454       .  S
Zr569       O575   2.386       .  S
Zr569       O576   2.394       .  S
Zr569       O577   2.327       .  S
Zr569       O578   2.356       .  S
Zr569       O594   2.430       .  S
Zr570       O583   2.462       .  S
Zr570       O576   2.404       .  S
Zr570       O577   2.359       .  S
Zr570       O589   2.419       .  S
Zr570       O582   2.442       .  S
Zr571       O597   2.361       .  S
Zr571       O575   2.408       .  S
Zr571       O578   2.393       .  S
Zr571       O573   2.436       .  S
Zr571       O595   2.441       .  S
Zr572       O575   2.432       .  S
Zr572       O576   2.419       .  S
Zr572       O598   2.437       .  S
Zr572       O599   2.433       .  S
Zr572       O574   2.435       .  S
O573        H610   0.990       .  S
O574        H605   0.990       .  S
O574        H619   0.990       .  S
O576        H602   0.966       .  S
O577       Zr587   2.320       .  S
O578       Zr587   2.292       .  S
O578        H603   0.962       .  S
C581        C647   1.433       .  S
O582        H618   0.989       .  S
O583        C585   1.277       .  A
O584        C585   1.293       .  A
O586       Zr587   2.436       .  S
O586        H615   0.990       .  S
Zr587       O592   2.575       .  S
Zr587       O590   2.435       .  S
Zr587       O591   2.439       .  S
O588        C593   1.273       .  A
O589        H606   0.988       .  S
O589        H621   0.982       .  S
O590        H607   0.990       .  S
O591        H611   0.990       .  S
O591        H620   0.990       .  S
O592        C593   1.317       .  A
O594        H613   0.990       .  S
O594        H617   0.990       .  S
O595        H609   0.990       .  S
O595        H616   0.988       .  S
O596        C600   1.290       .  A
O597        C600   1.266       .  A
O598        H608   0.990       .  S
O599        H612   0.990       .  S
C600       C1354   1.379   1_554  S
Zr623       O625   2.423       .  S
Zr623       O626   2.462       .  S
Zr623       O629   2.514       .  S
Zr623       O631   2.366       .  S
Zr623       O632   2.353       .  S
Zr623       O633   2.432       .  S
Zr623       O634   2.392       .  S
Zr623       O624   2.422       .  S
O624        H680   0.990       .  S
O624        H688   0.990       .  S
O625        C645   1.282       .  A
O626        C647   1.289       .  A
O627       Zr637   2.371       .  S
O627        C646   1.268       .  A
O628       Zr636   2.423       .  S
O628        C647   1.271       .  A
O629        C646   1.312       .  A
O630       Zr638   2.526       .  S
O630        C645   1.308       .  A
O631       Zr636   2.347       .  S
O631       Zr638   2.303       .  S
O632       Zr637   2.363       .  S
O632       Zr638   2.337       .  S
O632        H667   0.961       .  S
O633       Zr636   2.416       .  S
O633       Zr653   2.417       .  S
O633        H670   0.964       .  S
O634       Zr637   2.380       .  S
O634       Zr653   2.447       .  S
Zr635       O654   2.441       .  S
Zr635       O662   2.449       .  S
Zr635       O650   2.477       .  S
Zr635       O641   2.417       .  S
Zr635       O642   2.399       .  S
Zr635       O643   2.347       .  S
Zr635       O644   2.369       .  S
Zr635       O660   2.425       .  S
Zr636       O649   2.393       .  S
Zr636       O642   2.387       .  S
Zr636       O643   2.377       .  S
Zr636       O655   2.435       .  S
Zr636       O648   2.448       .  S
Zr637       O663   2.317       .  S
Zr637       O641   2.393       .  S
Zr637       O644   2.366       .  S
Zr637       O639   2.435       .  S
Zr637       O661   2.439       .  S
Zr638       O641   2.417       .  S
Zr638       O642   2.423       .  S
Zr638       O664   2.432       .  S
Zr638       O665   2.437       .  S
Zr638       O640   2.436       .  S
O639        H676   0.990       .  S
O640        H671   0.991       .  S
O640        H685   0.990       .  S
O642        H668   0.965       .  S
O643       Zr653   2.343       .  S
O644       Zr653   2.295       .  S
O644        H669   0.955       .  S
O648        H684   0.990       .  S
O649        C651   1.275       .  A
O650        C651   1.303       .  A
O652       Zr653   2.436       .  S
O652        H681   0.990       .  S
Zr653       O658   2.566       .  S
Zr653       O656   2.435       .  S
Zr653       O657   2.437       .  S
O654        C659   1.285       .  A
O655        H672   0.987       .  S
O655        H687   0.990       .  S
O656        H673   0.990       .  S
O657        H677   0.990       .  S
O657        H686   0.990       .  S
O658        C659   1.315       .  A
O660        H679   0.990       .  S
O660        H683   0.989       .  S
O661        H675   0.990       .  S
O661        H682   0.990       .  S
O662        C666   1.288       .  A
O663        C666   1.262       .  A
O664        H674   0.990       .  S
O665        H678   0.990       .  S
C666       C1288   1.383       .  S
C689        C695   1.556       .  S
C689        C693   1.558       .  S
C689        N946   1.566       .  S
C690        H697   1.082       .  S
C690        C691   1.406       .  D
C691        C692   1.588       .  S
C691        N737   1.510       .  S
C692        C694   1.597       .  S
C692        H698   1.110       .  S
C693        H699   1.086       .  S
C694        N765   1.506       .  S
C695        H700   1.081       .  S
C695        C696   1.371       .  D
C696       N1238   1.512       .  S
C701        C702   1.548       .  S
C701        C707   1.560       .  S
C701        C705   1.560       .  S
C701       N1231   1.552       .  S
C702        H709   1.086       .  S
C702        C703   1.386       .  D
C703        C704   1.589       .  S
C703        N772   1.498       .  S
C704        C708   1.606       .  S
C704        C706   1.581       .  S
C704        H710   1.110       .  S
C705        H711   1.080       .  S
C705        C706   1.396       .  D
C706        N744   1.505       .  S
C707        H712   1.078       .  S
C707        C708   1.375       .  D
C708        N939   1.503       .  S
C713        C719   1.555       .  S
C713        N751   1.565       .  S
C714        H721   1.083       .  S
C714        C715   1.404       .  D
C715        C716   1.590       .  S
C715        N800   1.509       .  S
C716        C720   1.629   1_556  S
C716        C718   1.596       .  S
C716        H722   1.110       .  S
C717        H723   1.086       .  S
C717        C718   1.382       .  D
C718       N1092   1.505       .  S
C719        H724   1.081       .  S
C725        C726   1.548       .  S
C725        C731   1.560       .  S
C725        C729   1.561       .  S
C725        N786   1.553       .  S
C726        H733   1.086       .  S
C726        C727   1.387       .  D
C727        C728   1.591       .  S
C727       N1085   1.498       .  S
C728        C732   1.608       .  S
C728        C730   1.577       .  S
C728        H734   1.110       .  S
C729        H735   1.080       .  S
C729        C730   1.396       .  D
C730        N793   1.503       .  S
C731        H736   1.079       .  S
C731        C732   1.375       .  D
C732        N758   1.505       .  S
N737        C741   1.356       .  A
N737        C738   1.393       .  A
C738        C739   1.381       .  A
C738       C1122   1.514       .  S
C739        C740   1.340       .  A
C739        H742   1.080       .  S
C740        C741   1.370       .  A
C740        H743   1.083       .  S
C741        C831   1.437       .  S
N744        C748   1.360       .  A
N744        C745   1.381       .  A
C745        C746   1.382       .  A
C745        C901   1.489       .  S
C746        C747   1.336       .  A
C746        H749   1.078       .  S
C747        C748   1.371       .  A
C747        H750   1.085       .  S
C748       C1208   1.448       .  S
N751        C755   1.384       .  A
N751        C752   1.384       .  A
C752        C753   1.375       .  A
C752       C1135   1.503       .  S
C753        C754   1.346       .  A
C753        H756   1.082       .  S
C754        C755   1.356       .  A
C754        H757   1.069       .  S
C755       C1268   1.522       .  S
N758        C762   1.369       .  A
N758        C759   1.387       .  A
C759        C760   1.384       .  A
C759       C1187   1.541       .  S
C760        C761   1.364       .  A
C760        H763   1.083       .  S
C761        C762   1.380       .  A
C761        H764   1.083       .  S
C762       C1333   1.504       .  S
N765        C769   1.372       .  A
N765        C766   1.367       .  A
C766        C767   1.384       .  A
C766       C1281   1.495       .  S
C767        C768   1.348       .  A
C767        H770   1.076       .  S
C768        C769   1.369       .  A
C768        H771   1.085       .  S
C769        C976   1.496       .  S
N772        C776   1.370       .  A
N772        C773   1.372       .  A
C773        C774   1.379       .  A
C773       C1041   1.515       .  S
C774        C775   1.349       .  A
C774        H777   1.054       .  S
C775        C776   1.364       .  A
C775        H778   1.085       .  S
C776       C1339   1.482       .  S
N779        C783   1.373       .  A
N779        C780   1.384       .  A
C780        C781   1.384       .  A
C780        C843   1.539       .  S
C781        C782   1.365       .  A
C781        H784   1.083       .  S
C782        C783   1.382       .  A
C782        H785   1.083       .  S
C783        C989   1.520       .  S
N786        C790   1.385       .  A
N786        C787   1.390       .  A
C787        C788   1.357       .  A
C787        C895   1.497       .  S
C788        C789   1.309       .  A
C788        H791   1.074       .  S
C789        C790   1.374       .  A
C789        H792   1.072       .  S
C790       C1047   1.514       .  S
N793        C797   1.358       .  A
N793        C794   1.380       .  A
C794        C795   1.382       .  A
C794       C1127   1.489       .  S
C795        C796   1.337       .  A
C795        H798   1.078       .  S
C796        C797   1.371       .  A
C796        H799   1.085       .  S
C797        C850   1.447       .  S
N800        C804   1.357       .  A
N800        C801   1.391       .  A
C801        C802   1.381       .  A
C801        C896   1.510       .  S
C802        C803   1.341       .  A
C802        H805   1.081       .  S
C803        C804   1.371       .  A
C803        H806   1.084       .  S
C804       C1189   1.439       .  S
Zr807       O809   2.452       .  S
Zr807       O810   2.467       .  S
Zr807       O813   2.468       .  S
Zr807       O815   2.366       .  S
Zr807       O816   2.396       .  S
Zr807      O2193   2.430   1_455  S
Zr807      O2194   2.430   1_455  S
Zr807      O2184   2.432   1_455  S
O808      Zr2183   2.432       .  S
O808       H2240   0.990       .  S
O808        H872   0.990       .  S
O809        C829   1.286       .  A
O810        C831   1.295       .  A
O811       Zr821   2.345   1_565  S
O811       C2206   1.254       .  A
O812       Zr820   2.337       .  S
O812        C831   1.259       .  A
O813        C830   1.284   1_455  A
O814       Zr822   2.546   1_565  S
O814        C829   1.312       .  A
O815       Zr820   2.377       .  S
O815       Zr822   2.331   1_565  S
O816      Zr2197   2.384   1_465  S
O816       Zr822   2.323   1_565  S
O816        H851   0.961       .  S
O817      Zr2183   2.426       .  S
O817      Zr2196   2.408       .  S
O817       Zr837   2.446       .  S
O817        H854   0.965       .  S
O818      Zr2183   2.435       .  S
O818       Zr821   2.397   1_565  S
O818       Zr837   2.429       .  S
Zr819       O838   2.444       .  S
Zr819       O846   2.476       .  S
Zr819       O834   2.489       .  S
Zr819      O2201   2.415       .  S
Zr819      O2202   2.439       .  S
Zr819       O827   2.356   1_545  S
Zr819       O828   2.375       .  S
Zr819      O2220   2.434       .  S
Zr820       O833   2.353   1_565  S
Zr820      O2193   2.409   1_455  S
Zr820       O826   2.410   1_565  S
Zr820      O2203   2.372   1_455  S
Zr820      O2215   2.444       .  S
Zr820       O832   2.437       .  S
Zr821       O847   2.315       .  S
Zr821      O2192   2.380   1_545  S
Zr821      O2201   2.391       .  S
Zr821       O828   2.391       .  S
Zr821       O823   2.429       .  S
Zr821      O2221   2.437       .  S
Zr822       O825   2.436       .  S
Zr822       O826   2.424       .  S
Zr822       O848   2.440       .  S
Zr822       O849   2.437       .  S
Zr822       O824   2.430       .  S
O823        H860   0.986       .  S
O824        H855   0.989   1_545  S
O824        H869   0.990       .  S
O825      Zr2195   2.416   1_455  S
O825      Zr2197   2.395   1_455  S
O826      Zr2195   2.432   1_455  S
O826        H852   0.966       .  S
O827      Zr2196   2.372       .  S
O827       Zr837   2.299       .  S
O828       Zr837   2.339   1_545  S
O828        H853   0.964       .  S
C829        C940   1.536       .  S
C830        C897   1.486       .  S
C830       O2187   1.253       .  A
O832        H868   0.991       .  S
O833        C835   1.255       .  A
O834       C2211   1.287       .  A
C835       O2210   1.287   1_455  A
O836       Zr837   2.437       .  S
O836        H865   0.990       .  S
Zr837       O842   2.563   1_565  S
Zr837       O840   2.435       .  S
Zr837       O841   2.434       .  S
O838        C843   1.286       .  A
O839      Zr2196   2.441       .  S
O839       H2232   0.990       .  S
O839        H871   0.989       .  S
O840        H857   0.990       .  S
O841        H861   0.990       .  S
O841        H870   0.990       .  S
O842        C843   1.316       .  A
O844      Zr2195   2.430   1_455  S
O844        H863   0.990       .  S
O844        H867   0.990   1_455  S
O845      Zr2197   2.440       .  S
O845        H859   0.989   1_655  S
O845        H866   0.990       .  S
O846        C850   1.302       .  A
O847        C850   1.256       .  A
O848        H858   0.990       .  S
O849        H862   0.990       .  S
H856       O2215   0.990       .  S
H864       O2184   0.990   1_455  S
Zr873       O875   2.371       .  S
Zr873       O876   2.528       .  S
Zr873       O879   2.593       .  S
Zr873       O881   2.379   1_545  S
Zr873       O882   2.367       .  S
Zr873      O2259   2.444       .  S
Zr873      O2260   2.420       .  S
Zr873      O2250   2.433       .  S
O874      Zr2249   2.433   1_455  S
O874        H930   0.990   1_455  S
O874        H938   0.990       .  S
O875        C895   1.271       .  A
O876       C2273   1.295   1_545  A
O877       Zr887   2.383       .  S
O877        C896   1.263       .  A
O878       Zr886   2.340       .  S
O878        C897   1.252   1_455  A
O879        C896   1.325       .  A
O880       Zr888   2.573   1_545  S
O880        C895   1.320       .  A
O881      Zr2262   2.378       .  S
O881       Zr888   2.314       .  S
O882       Zr887   2.382       .  S
O882       Zr888   2.331   1_545  S
O882        H917   0.964       .  S
O883      Zr2249   2.447   1_455  S
O883       Zr886   2.432   1_545  S
O883       Zr903   2.427       .  S
O883        H920   0.966       .  S
O884      Zr2249   2.420   1_455  S
O884      Zr2263   2.382   1_455  S
O884       Zr903   2.443       .  S
Zr885       O904   2.387       .  S
Zr885       O912   2.465       .  S
Zr885       O900   2.558       .  S
Zr885      O2267   2.435   1_455  S
Zr885      O2268   2.414   1_455  S
Zr885       O893   2.336       .  S
Zr885       O894   2.406   1_565  S
Zr885      O2286   2.428   1_455  S
Zr886       O899   2.366       .  S
Zr886      O2257   2.378   1_455  S
Zr886      O2268   2.399   1_455  S
Zr886       O893   2.360       .  S
Zr886       O905   2.445       .  S
Zr886      O2274   2.442   1_455  S
Zr887       O913   2.347   1_545  S
Zr887      O2260   2.385       .  S
Zr887       O891   2.422   1_545  S
Zr887      O2270   2.390       .  S
Zr887      O2265   2.436       .  S
Zr887       O911   2.452       .  S
Zr888       O891   2.439       .  S
Zr888       O892   2.451       .  S
Zr888       O914   2.433       .  S
Zr888       O915   2.436       .  S
Zr888       O890   2.437       .  S
O889      Zr2263   2.435   1_455  S
O889        H926   0.990       .  S
O890        H921   0.990       .  S
O890        H935   0.990       .  S
O891      Zr2261   2.439       .  S
O892      Zr2261   2.417       .  S
O892      Zr2262   2.399       .  S
O892        H918   0.966       .  S
O893       Zr903   2.327   1_565  S
O894      Zr2263   2.383   1_455  S
O894       Zr903   2.336       .  S
O894        H919   0.965       .  S
C897       O2252   1.295   1_565  A
O898      Zr2262   2.441       .  S
O898        H934   0.989       .  S
O899        C901   1.263       .  A
O900        C901   1.317       .  A
O902       Zr903   2.437       .  S
O902        H931   0.990       .  S
Zr903       O908   2.544   1_545  S
Zr903       O906   2.434   1_545  S
Zr903       O907   2.441       .  S
O904        C909   1.274       .  A
O905        H922   0.989       .  S
O905        H937   0.986       .  S
O906        H923   0.990       .  S
O907        H927   0.991       .  S
O907        H936   0.989       .  S
O908        C909   1.312       .  A
C909        C947   1.497       .  S
O910      Zr2261   2.432       .  S
O910        H929   0.990       .  S
O910        H933   0.990       .  S
O911        H925   0.991       .  S
O911        H932   0.991       .  S
O912        C916   1.283   1_455  A
O913       C2292   1.257       .  A
O914        H924   0.990   1_565  S
O915        H928   0.990       .  S
C916       O2289   1.257       .  A
N939        C943   1.370       .  A
N939        C940   1.385       .  A
C940        C941   1.384       .  A
C941        C942   1.364       .  A
C941        H944   1.083       .  S
C942        C943   1.381       .  A
C942        H945   1.083       .  S
C943        C975   1.507       .  S
N946        C950   1.385       .  A
N946        C947   1.381       .  A
C947        C948   1.374       .  A
C948        C949   1.346       .  A
C948        H951   1.082       .  S
C949        C950   1.356       .  A
C949        H952   1.070       .  S
C950       C1042   1.530       .  S
Zr953       O955   2.428       .  S
Zr953       O956   2.465       .  S
Zr953       O959   2.513       .  S
Zr953       O961   2.364       .  S
Zr953       O962   2.357       .  S
Zr953       O963   2.433       .  S
Zr953       O964   2.397       .  S
Zr953       O954   2.423       .  S
O954       H1010   0.990       .  S
O954       H1018   0.990       .  S
O955        C975   1.282       .  A
O956        C977   1.288       .  A
O957       Zr967   2.376       .  S
O957        C976   1.269       .  A
O958       Zr966   2.418       .  S
O958        C977   1.270   1_545  A
O959        C976   1.311       .  A
O960       Zr968   2.518   1_565  S
O960        C975   1.305       .  A
O961       Zr966   2.348   1_565  S
O961       Zr968   2.299   1_565  S
O962       Zr967   2.367       .  S
O962       Zr968   2.348   1_565  S
O962        H997   0.962       .  S
O963       Zr966   2.418   1_565  S
O963       Zr983   2.413       .  S
O963       H1000   0.964       .  S
O964       Zr967   2.382       .  S
O964       Zr983   2.450       .  S
Zr965       O984   2.438       .  S
Zr965       O992   2.435       .  S
Zr965       O980   2.481       .  S
Zr965       O971   2.416       .  S
Zr965       O972   2.392       .  S
Zr965       O973   2.343       .  S
Zr965       O974   2.372       .  S
Zr965       O990   2.428       .  S
Zr966       O979   2.394       .  S
Zr966       O972   2.385       .  S
Zr966       O973   2.375       .  S
Zr966       O985   2.435       .  S
Zr966       O978   2.450       .  S
Zr967       O993   2.320   1_565  S
Zr967       O971   2.395   1_565  S
Zr967       O974   2.373   1_565  S
Zr967       O969   2.436       .  S
Zr967       O991   2.444       .  S
Zr968       O971   2.412       .  S
Zr968       O972   2.419       .  S
Zr968       O994   2.429       .  S
Zr968       O995   2.434       .  S
Zr968       O970   2.437       .  S
O969       H1006   0.990       .  S
O970       H1001   0.990       .  S
O970       H1015   0.990       .  S
O972        H998   0.965       .  S
O973       Zr983   2.341   1_545  S
O974       Zr983   2.293   1_545  S
O974        H999   0.956       .  S
C977       C1043   1.432       .  S
O978       H1014   0.990       .  S
O979        C981   1.275       .  A
O980        C981   1.304       .  A
C981       C1086   1.481       .  S
O982       Zr983   2.435       .  S
O982       H1011   0.990       .  S
Zr983       O988   2.560   1_565  S
Zr983       O986   2.437   1_565  S
Zr983       O987   2.439       .  S
O984        C989   1.284       .  A
O985       H1002   0.987   1_545  S
O985       H1017   0.989       .  S
O986       H1003   0.990       .  S
O987       H1007   0.990       .  S
O987       H1016   0.990       .  S
O988        C989   1.313       .  A
O990       H1009   0.990       .  S
O990       H1013   0.990       .  S
O991       H1005   0.990       .  S
O991       H1012   0.989   1_565  S
O992        C996   1.286       .  A
O993        C996   1.264       .  A
O994       H1004   0.990   1_545  S
O995       H1008   0.990       .  S
Zr1019     O1021   2.426       .  S
Zr1019     O1022   2.465       .  S
Zr1019     O1025   2.568       .  S
Zr1019     O1027   2.380       .  S
Zr1019     O1028   2.338       .  S
Zr1019     O1029   2.437   1_565  S
Zr1019     O1030   2.405   1_565  S
Zr1019     O1020   2.435   1_565  S
O1020      H1076   0.990       .  S
O1020      H1084   0.990       .  S
O1021      C1041   1.283       .  A
O1022      C1043   1.291       .  A
O1023     Zr1033   2.402   1_565  S
O1023      C1042   1.271       .  A
O1024     Zr1032   2.416   1_565  S
O1024      C1043   1.271       .  A
O1025      C1042   1.322       .  A
O1026     Zr1034   2.550       .  S
O1026      C1041   1.309       .  A
O1027     Zr1032   2.382   1_565  S
O1027     Zr1034   2.307       .  S
O1028     Zr1033   2.375   1_565  S
O1028     Zr1034   2.334       .  S
O1028      H1063   0.952       .  S
O1029     Zr1032   2.432       .  S
O1029     Zr1049   2.408       .  S
O1029      H1066   0.965       .  S
O1030     Zr1033   2.393       .  S
O1030     Zr1049   2.455       .  S
Zr1031     O1050   2.375       .  S
Zr1031     O1058   2.446       .  S
Zr1031     O1046   2.459       .  S
Zr1031     O1037   2.388   1_545  S
Zr1031     O1038   2.397   1_545  S
Zr1031     O1039   2.325       .  S
Zr1031     O1040   2.360       .  S
Zr1031     O1056   2.434   1_545  S
Zr1032     O1045   2.465       .  S
Zr1032     O1038   2.405   1_545  S
Zr1032     O1039   2.356       .  S
Zr1032     O1051   2.417       .  S
Zr1032     O1044   2.442   1_545  S
Zr1033     O1059   2.359       .  S
Zr1033     O1037   2.405   1_545  S
Zr1033     O1040   2.397       .  S
Zr1033     O1035   2.435       .  S
Zr1033     O1057   2.443   1_545  S
Zr1034     O1037   2.431       .  S
Zr1034     O1038   2.424       .  S
Zr1034     O1060   2.438       .  S
Zr1034     O1061   2.432       .  S
Zr1034     O1036   2.436       .  S
O1035      H1072   0.990       .  S
O1036      H1067   0.989       .  S
O1036      H1081   0.990       .  S
O1038      H1064   0.966       .  S
O1039     Zr1049   2.321       .  S
O1040     Zr1049   2.293       .  S
O1040      H1065   0.963       .  S
O1044      H1080   0.989       .  S
O1045      C1047   1.277       .  A
O1046      C1047   1.294       .  A
O1048     Zr1049   2.436       .  S
O1048      H1077   0.990       .  S
Zr1049     O1054   2.579       .  S
Zr1049     O1052   2.434       .  S
Zr1049     O1053   2.437       .  S
O1050      C1055   1.274       .  A
O1051      H1068   0.988       .  S
O1051      H1083   0.982       .  S
O1052      H1069   0.990       .  S
O1053      H1073   0.990       .  S
O1053      H1082   0.990       .  S
O1054      C1055   1.318       .  A
C1055      C1093   1.499       .  S
O1056      H1075   0.990       .  S
O1056      H1079   0.990       .  S
O1057      H1071   0.990       .  S
O1057      H1078   0.988       .  S
O1058      C1062   1.289       .  A
O1059      C1062   1.266       .  A
O1060      H1070   0.990       .  S
O1061      H1074   0.990       .  S
N1085      C1089   1.370       .  A
N1085      C1086   1.370       .  A
C1086      C1087   1.363       .  A
C1087      C1088   1.348       .  A
C1087      H1090   1.085       .  S
C1088      C1089   1.380       .  A
C1088      H1091   1.056       .  S
C1089      C1267   1.512       .  S
N1092      C1096   1.369       .  A
N1092      C1093   1.369       .  A
C1093      C1094   1.384       .  A
C1094      C1095   1.348       .  A
C1094      H1097   1.077       .  S
C1095      C1096   1.369       .  A
C1095      H1098   1.085       .  S
C1096      C1334   1.491       .  S
Zr1099     O1101   2.365       .  S
Zr1099     O1102   2.535       .  S
Zr1099     O1105   2.610       .  S
Zr1099     O1107   2.377       .  S
Zr1099     O1108   2.365       .  S
Zr1099     O2485   2.447   1_455  S
Zr1099     O2486   2.420   1_455  S
Zr1099     O2476   2.432   1_455  S
O1100     Zr2475   2.436       .  S
O1100      H2532   0.990       .  S
O1100      H1164   0.990       .  S
O1101      C1121   1.270       .  A
O1102      C1123   1.296       .  A
O1103     Zr1113   2.378       .  S
O1103      C1122   1.263       .  A
O1104     Zr1112   2.338       .  S
O1104      C2499   1.253       .  A
O1105      C1122   1.329       .  A
O1106     Zr1114   2.573       .  S
O1106      C1121   1.320       .  A
O1107     Zr2488   2.377   1_455  S
O1107     Zr1114   2.311       .  S
O1108     Zr1113   2.380       .  S
O1108     Zr1114   2.324       .  S
O1108      H1143   0.962       .  S
O1109     Zr2475   2.446       .  S
O1109     Zr1112   2.438       .  S
O1109     Zr1129   2.424       .  S
O1109      H1146   0.966       .  S
O1110     Zr2475   2.420       .  S
O1110     Zr2489   2.386       .  S
O1110     Zr1129   2.446       .  S
Zr1111     O1130   2.398       .  S
Zr1111     O1138   2.459       .  S
Zr1111     O1126   2.558       .  S
Zr1111     O2493   2.435       .  S
Zr1111     O2494   2.416       .  S
Zr1111     O1119   2.330       .  S
Zr1111     O1120   2.409       .  S
Zr1111     O2512   2.428       .  S
Zr1112     O1125   2.368       .  S
Zr1112     O2483   2.377       .  S
Zr1112     O2494   2.395       .  S
Zr1112     O1119   2.357       .  S
Zr1112     O1131   2.446       .  S
Zr1112     O2500   2.443       .  S
Zr1113     O1139   2.347       .  S
Zr1113     O2486   2.385   1_455  S
Zr1113     O1117   2.417       .  S
Zr1113     O2496   2.387   1_455  S
Zr1113     O2491   2.438   1_455  S
Zr1113     O1137   2.449       .  S
Zr1114     O1117   2.437       .  S
Zr1114     O1118   2.448       .  S
Zr1114     O1140   2.433       .  S
Zr1114     O1141   2.433       .  S
Zr1114     O1116   2.434       .  S
O1115     Zr2489   2.435       .  S
O1115      H1152   0.990       .  S
O1116      H1147   0.990       .  S
O1116      H1161   0.990       .  S
O1117     Zr2487   2.434   1_455  S
O1118     Zr2487   2.420   1_455  S
O1118     Zr2488   2.399   1_455  S
O1118      H1144   0.966       .  S
O1119     Zr1129   2.327       .  S
O1120     Zr2489   2.392       .  S
O1120     Zr1129   2.341       .  S
O1120      H1145   0.965       .  S
C1121      C1232   1.494       .  S
C1123      C1188   1.483       .  S
C1123      O2480   1.254   1_455  A
O1124     Zr2488   2.442   1_455  S
O1124      H1160   0.989       .  S
O1125      C1127   1.264       .  A
O1126      C1127   1.316       .  A
O1128     Zr1129   2.437       .  S
O1128      H1157   0.990       .  S
Zr1129     O1134   2.546       .  S
Zr1129     O1132   2.434       .  S
Zr1129     O1133   2.440       .  S
O1130      C1135   1.276       .  A
O1131      H1148   0.989       .  S
O1131      H1163   0.986       .  S
O1132      H1149   0.990       .  S
O1133      H1153   0.991       .  S
O1133      H1162   0.989       .  S
O1134      C1135   1.312       .  A
O1136     Zr2487   2.436   1_455  S
O1136      H1155   0.990       .  S
O1136      H1159   0.990       .  S
O1137      H1151   0.991       .  S
O1137      H1158   0.990       .  S
O1138      C2518   1.283       .  A
O1139      C1142   1.256       .  A
O1140      H1150   0.990       .  S
O1141      H1154   0.990       .  S
C1142      O2514   1.283   1_455  A
H1156      O2476   0.990   1_455  S
Zr1165     O1167   2.456       .  S
Zr1165     O1168   2.472       .  S
Zr1165     O1171   2.469       .  S
Zr1165     O1173   2.370       .  S
Zr1165     O1174   2.394       .  S
Zr1165     O2551   2.431       .  S
Zr1165     O2552   2.439       .  S
Zr1165     O2542   2.436       .  S
O1166     Zr2541   2.433   1_455  S
O1166      H1222   0.990   1_455  S
O1166      H1230   0.990       .  S
O1167      C1187   1.286       .  A
O1168      C1189   1.297       .  A
O1169     Zr1179   2.350       .  S
O1169      C1188   1.256       .  A
O1170     Zr1178   2.338       .  S
O1170      C1189   1.259       .  A
O1171      C2564   1.284       .  A
O1172     Zr1180   2.559       .  S
O1172      C1187   1.314       .  A
O1173     Zr1178   2.378       .  S
O1173     Zr1180   2.330       .  S
O1174     Zr2555   2.382       .  S
O1174     Zr1180   2.317       .  S
O1174      H1209   0.961       .  S
O1175     Zr2541   2.426   1_455  S
O1175     Zr2554   2.410   1_455  S
O1175     Zr1195   2.447       .  S
O1175      H1212   0.965       .  S
O1176     Zr2541   2.440   1_455  S
O1176     Zr1179   2.398       .  S
O1176     Zr1195   2.431       .  S
Zr1177     O1196   2.436       .  S
Zr1177     O1204   2.477       .  S
Zr1177     O1192   2.494       .  S
Zr1177     O2559   2.418       .  S
Zr1177     O2560   2.432   1_455  S
Zr1177     O1185   2.355       .  S
Zr1177     O1186   2.373       .  S
Zr1177     O2578   2.429   1_455  S
Zr1178     O1191   2.354       .  S
Zr1178     O2551   2.412       .  S
Zr1178     O1184   2.409       .  S
Zr1178     O2561   2.368       .  S
Zr1178     O2573   2.442       .  S
Zr1178     O1190   2.438       .  S
Zr1179     O1205   2.318       .  S
Zr1179     O2550   2.380   1_455  S
Zr1179     O2559   2.397       .  S
Zr1179     O1186   2.392       .  S
Zr1179     O1181   2.432       .  S
Zr1179     O2579   2.438       .  S
Zr1180     O1183   2.436       .  S
Zr1180     O1184   2.429       .  S
Zr1180     O1206   2.438       .  S
Zr1180     O1207   2.434       .  S
Zr1180     O1182   2.426       .  S
O1181      H1218   0.987       .  S
O1182      H1213   0.989       .  S
O1182      H1227   0.990       .  S
O1183     Zr2553   2.414       .  S
O1183     Zr2555   2.390       .  S
O1184     Zr2553   2.440       .  S
O1184      H1210   0.966       .  S
O1185     Zr2554   2.370   1_455  S
O1185     Zr1195   2.294       .  S
O1186     Zr1195   2.337       .  S
O1186      H1211   0.964       .  S
C1188      O2547   1.283       .  A
O1190      H1226   0.991       .  S
O1191      C2569   1.256       .  A
O1192      C1193   1.288       .  A
C1193      O2567   1.255   1_455  A
O1194     Zr1195   2.436       .  S
O1194      H1223   0.990       .  S
Zr1195     O1200   2.566       .  S
Zr1195     O1198   2.434       .  S
Zr1195     O1199   2.429       .  S
O1196      C1201   1.284       .  A
O1197     Zr2554   2.446       .  S
O1197      H1214   0.990       .  S
O1197      H1229   0.989   1_655  S
O1198      H1215   0.990       .  S
O1199      H1219   0.990       .  S
O1199      H1228   0.990       .  S
O1200      C1201   1.316       .  A
C1201      C1239   1.536       .  S
O1202     Zr2553   2.433       .  S
O1202      H1221   0.990       .  S
O1202      H1225   0.990       .  S
O1203     Zr2555   2.441       .  S
O1203      H2593   0.989       .  S
O1203      H1224   0.990       .  S
O1204      C1208   1.303       .  A
O1205      C1208   1.256       .  A
O1206      H1216   0.990       .  S
O1207      H1220   0.990       .  S
H1217      O2579   0.989   1_655  S
N1231      C1235   1.383       .  A
N1231      C1232   1.389       .  A
C1232      C1233   1.357       .  A
C1233      C1234   1.309       .  A
C1233      H1236   1.076       .  S
C1234      C1235   1.373       .  A
C1234      H1237   1.069       .  S
C1235      C1273   1.513       .  S
N1238      C1242   1.374       .  A
N1238      C1239   1.383       .  A
C1239      C1240   1.383       .  A
C1240      C1241   1.366       .  A
C1240      H1243   1.083       .  S
C1241      C1242   1.382       .  A
C1241      H1244   1.083       .  S
C1242      C1347   1.523       .  S
Zr1245     O1247   2.420       .  S
Zr1245     O1248   2.469       .  S
Zr1245     O1251   2.561       .  S
Zr1245     O1253   2.379       .  S
Zr1245     O1254   2.342       .  S
Zr1245     O1255   2.433       .  S
Zr1245     O1256   2.405       .  S
Zr1245     O1246   2.434       .  S
O1246      H1302   0.990       .  S
O1246      H1310   0.990       .  S
O1247      C1267   1.281       .  A
O1248      C1269   1.291       .  A
O1249     Zr1259   2.401       .  S
O1249      C1268   1.272       .  A
O1250     Zr1258   2.411       .  S
O1250      C1269   1.270       .  A
O1251      C1268   1.320       .  A
O1252     Zr1260   2.548       .  S
O1252      C1267   1.309       .  A
O1253     Zr1258   2.381       .  S
O1253     Zr1260   2.312       .  S
O1254     Zr1259   2.379       .  S
O1254     Zr1260   2.335       .  S
O1254      H1289   0.953       .  S
O1255     Zr1258   2.434       .  S
O1255     Zr1275   2.409       .  S
O1255      H1292   0.965       .  S
O1256     Zr1259   2.395       .  S
O1256     Zr1275   2.451       .  S
Zr1257     O1276   2.379       .  S
Zr1257     O1284   2.461       .  S
Zr1257     O1272   2.455       .  S
Zr1257     O1263   2.389       .  S
Zr1257     O1264   2.400       .  S
Zr1257     O1265   2.331       .  S
Zr1257     O1266   2.353       .  S
Zr1257     O1282   2.432       .  S
Zr1258     O1271   2.459       .  S
Zr1258     O1264   2.404       .  S
Zr1258     O1265   2.361       .  S
Zr1258     O1277   2.417       .  S
Zr1258     O1270   2.440       .  S
Zr1259     O1285   2.364       .  S
Zr1259     O1263   2.407       .  S
Zr1259     O1266   2.394       .  S
Zr1259     O1261   2.434       .  S
Zr1259     O1283   2.441       .  S
Zr1260     O1263   2.432       .  S
Zr1260     O1264   2.423       .  S
Zr1260     O1286   2.435       .  S
Zr1260     O1287   2.435       .  S
Zr1260     O1262   2.437       .  S
O1261      H1298   0.990       .  S
O1262      H1293   0.990       .  S
O1262      H1307   0.990       .  S
O1264      H1290   0.966       .  S
O1265     Zr1275   2.325       .  S
O1266     Zr1275   2.290       .  S
O1266      H1291   0.962       .  S
C1269      C1335   1.434       .  S
O1270      H1306   0.989       .  S
O1271      C1273   1.275       .  A
O1272      C1273   1.293       .  A
O1274     Zr1275   2.435       .  S
O1274      H1303   0.990       .  S
Zr1275     O1280   2.566       .  S
Zr1275     O1278   2.431       .  S
Zr1275     O1279   2.440       .  S
O1276      C1281   1.275       .  A
O1277      H1294   0.988       .  S
O1277      H1309   0.983       .  S
O1278      H1295   0.990       .  S
O1279      H1299   0.990       .  S
O1279      H1308   0.990       .  S
O1280      C1281   1.315       .  A
O1282      H1301   0.990       .  S
O1282      H1305   0.990       .  S
O1283      H1297   0.990       .  S
O1283      H1304   0.989       .  S
O1284      C1288   1.292       .  A
O1285      C1288   1.267       .  A
O1286      H1296   0.990       .  S
O1287      H1300   0.990       .  S
Zr1311     O1313   2.424       .  S
Zr1311     O1314   2.460       .  S
Zr1311     O1317   2.511       .  S
Zr1311     O1319   2.367       .  S
Zr1311     O1320   2.356       .  S
Zr1311     O1321   2.428       .  S
Zr1311     O1322   2.399       .  S
Zr1311     O1312   2.424       .  S
O1312      H1368   0.990       .  S
O1312      H1376   0.990       .  S
O1313      C1333   1.282       .  A
O1314      C1335   1.288       .  A
O1315     Zr1325   2.370       .  S
O1315      C1334   1.268       .  A
O1316     Zr1324   2.424       .  S
O1316      C1335   1.271       .  A
O1317      C1334   1.310       .  A
O1318     Zr1326   2.516       .  S
O1318      C1333   1.305       .  A
O1319     Zr1324   2.350       .  S
O1319     Zr1326   2.301       .  S
O1320     Zr1325   2.369       .  S
O1320     Zr1326   2.348       .  S
O1320      H1355   0.961       .  S
O1321     Zr1324   2.420       .  S
O1321     Zr1341   2.415       .  S
O1321      H1358   0.963       .  S
O1322     Zr1325   2.386       .  S
O1322     Zr1341   2.453       .  S
Zr1323     O1342   2.442       .  S
Zr1323     O1350   2.438       .  S
Zr1323     O1338   2.477       .  S
Zr1323     O1329   2.412       .  S
Zr1323     O1330   2.397       .  S
Zr1323     O1331   2.341       .  S
Zr1323     O1332   2.371       .  S
Zr1323     O1348   2.426       .  S
Zr1324     O1337   2.402       .  S
Zr1324     O1330   2.387       .  S
Zr1324     O1331   2.375       .  S
Zr1324     O1343   2.433       .  S
Zr1324     O1336   2.451       .  S
Zr1325     O1351   2.318       .  S
Zr1325     O1329   2.394       .  S
Zr1325     O1332   2.367       .  S
Zr1325     O1327   2.437       .  S
Zr1325     O1349   2.440       .  S
Zr1326     O1329   2.411       .  S
Zr1326     O1330   2.420       .  S
Zr1326     O1352   2.430       .  S
Zr1326     O1353   2.437       .  S
Zr1326     O1328   2.437       .  S
O1327      H1364   0.990       .  S
O1328      H1359   0.990       .  S
O1328      H1373   0.990       .  S
O1330      H1356   0.966       .  S
O1331     Zr1341   2.343       .  S
O1332     Zr1341   2.293       .  S
O1332      H1357   0.955       .  S
O1336      H1372   0.989       .  S
O1337      C1339   1.277       .  A
O1338      C1339   1.302       .  A
O1340     Zr1341   2.436       .  S
O1340      H1369   0.990       .  S
Zr1341     O1346   2.562       .  S
Zr1341     O1344   2.436       .  S
Zr1341     O1345   2.439       .  S
O1342      C1347   1.285       .  A
O1343      H1360   0.987       .  S
O1343      H1375   0.990       .  S
O1344      H1361   0.990       .  S
O1345      H1365   0.990       .  S
O1345      H1374   0.990       .  S
O1346      C1347   1.313       .  A
O1348      H1367   0.990       .  S
O1348      H1371   0.989       .  S
O1349      H1363   0.989       .  S
O1349      H1370   0.990       .  S
O1350      C1354   1.286       .  A
O1351      C1354   1.263       .  A
O1352      H1362   0.990       .  S
O1353      H1366   0.990       .  S
C1377      C2066   1.562       .  S
C1377      C1383   1.555       .  S
C1377      C1381   1.557       .  S
C1377      N1634   1.563       .  S
C1378      C2065   1.562   1_554  S
C1378      H1385   1.081       .  S
C1378      C1379   1.403       .  D
C1379      C1380   1.589       .  S
C1379      N1425   1.508       .  S
C1380      C2072   1.630   1_554  S
C1380      C1382   1.595       .  S
C1380      H1386   1.110       .  S
C1381      H1387   1.086       .  S
C1381      C2070   1.382       .  D
C1382      C2069   1.384   1_554  D
C1382      N1453   1.506       .  S
C1383      H1388   1.081       .  S
C1383      C1384   1.370       .  D
C1384      C2068   1.629       .  S
C1384      N1926   1.512       .  S
C1389      C1390   1.549       .  S
C1389      C1395   1.560       .  S
C1389      C1393   1.560       .  S
C1389      N1919   1.555       .  S
C1390      H1397   1.086       .  S
C1390      C1391   1.387       .  D
C1391      C1392   1.591       .  S
C1391      N1460   1.499       .  S
C1392      C1396   1.607       .  S
C1392      C1394   1.577       .  S
C1392      H1398   1.110       .  S
C1393      H1399   1.078       .  S
C1393      C1394   1.396       .  D
C1394      N1432   1.504       .  S
C1395      H1400   1.078       .  S
C1395      C1396   1.376       .  D
C1396      N1627   1.504       .  S
C1401      C2090   1.563   1_554  S
C1401      C1407   1.556       .  S
C1401      C2093   1.555   1_554  S
C1401      N1439   1.564       .  S
C1402      C2089   1.564       .  S
C1402      H1409   1.082       .  S
C1402      C1403   1.405       .  D
C1403      C1404   1.588       .  S
C1403      N1488   1.510       .  S
C1404      C1408   1.628       .  S
C1404      C1406   1.595       .  S
C1404      H1410   1.110       .  S
C1405      C2089   1.557       .  S
C1405      H1411   1.086       .  S
C1405      C1406   1.382       .  D
C1406      N1780   1.505       .  S
C1407      H1412   1.081       .  S
C1407      C2096   1.370       .  D
C1408      C2095   1.368       .  D
C1408      N2155   1.511       .  S
C1413      C1414   1.547       .  S
C1413      C1419   1.560       .  S
C1413      C1417   1.562       .  S
C1413      N1474   1.554       .  S
C1414      H1421   1.086       .  S
C1414      C1415   1.387       .  D
C1415      C1416   1.587       .  S
C1415      N1773   1.497       .  S
C1416      C1420   1.609       .  S
C1416      C1418   1.578       .  S
C1416      H1422   1.110       .  S
C1417      H1423   1.081       .  S
C1417      C1418   1.398       .  D
C1418      N1481   1.503       .  S
C1419      H1424   1.078       .  S
C1419      C1420   1.375       .  D
C1420      N1446   1.506       .  S
N1425      C1429   1.356       .  A
N1425      C1426   1.389       .  A
C1426      C1427   1.381       .  A
C1426      C1810   1.506       .  S
C1427      C1428   1.339       .  A
C1427      H1430   1.081       .  S
C1428      C1429   1.371       .  A
C1428      H1431   1.084       .  S
C1429      C1519   1.439       .  S
N1432      C1436   1.357       .  A
N1432      C1433   1.383       .  A
C1433      C1434   1.383       .  A
C1433      C1589   1.495       .  S
C1434      C1435   1.338       .  A
C1434      H1437   1.078       .  S
C1435      C1436   1.372       .  A
C1435      H1438   1.085       .  S
C1436      C1896   1.446       .  S
N1439      C1443   1.384       .  A
N1439      C1440   1.380       .  A
C1440      C1441   1.375       .  A
C1440      C1823   1.499       .  S
C1441      C1442   1.346       .  A
C1441      H1444   1.082       .  S
C1442      C1443   1.356       .  A
C1442      H1445   1.066       .  S
C1443      C1956   1.530       .  S
N1446      C1450   1.372       .  A
N1446      C1447   1.387       .  A
C1447      C1448   1.384       .  A
C1447      C1875   1.541       .  S
C1448      C1449   1.365       .  A
C1448      H1451   1.083       .  S
C1449      C1450   1.381       .  A
C1449      H1452   1.083       .  S
C1450      C2021   1.510       .  S
N1453      C1457   1.368       .  A
N1453      C1454   1.368       .  A
C1454      C1455   1.384       .  A
C1454      C1969   1.497       .  S
C1455      C1456   1.349       .  A
C1455      H1458   1.077       .  S
C1456      C1457   1.371       .  A
C1456      H1459   1.086       .  S
C1457      C1664   1.491       .  S
N1460      C1464   1.371       .  A
N1460      C1461   1.372       .  A
C1461      C1462   1.380       .  A
C1461      C1729   1.512       .  S
C1462      C1463   1.348       .  A
C1462      H1465   1.056       .  S
C1463      C1464   1.364       .  A
C1463      H1466   1.085       .  S
C1464      C2027   1.485       .  S
N1467      C2096   1.513       .  S
N1467      C1471   1.376       .  A
N1467      C1468   1.384       .  A
C1468      C1469   1.382   1_554  A
C1468      C1531   1.535       .  S
C1469      C1470   1.365   1_556  A
C1469      H1472   1.083       .  S
C1470      C1471   1.382       .  A
C1470      H1473   1.083       .  S
C1471      C1677   1.526       .  S
N1474      C1478   1.386       .  A
N1474      C1475   1.389       .  A
C1475      C1476   1.357       .  A
C1475      C1583   1.495       .  S
C1476      C1477   1.311       .  A
C1476      H1479   1.074       .  S
C1477      C1478   1.374       .  A
C1477      H1480   1.070       .  S
C1478      C1735   1.518       .  S
N1481      C1485   1.358       .  A
N1481      C1482   1.380       .  A
C1482      C1483   1.382       .  A
C1482      C1815   1.488       .  S
C1483      C1484   1.336       .  A
C1483      H1486   1.078       .  S
C1484      C1485   1.372       .  A
C1484      H1487   1.085       .  S
C1485      C1538   1.445       .  S
N1488      C1492   1.357       .  A
N1488      C1489   1.392       .  A
C1489      C1490   1.380       .  A
C1489      C1584   1.509       .  S
C1490      C1491   1.341       .  A
C1490      H1493   1.080       .  S
C1491      C1492   1.372       .  A
C1491      H1494   1.084       .  S
C1492      C1877   1.440       .  S
Zr1495     O1497   2.454       .  S
Zr1495     O1498   2.471       .  S
Zr1495     O1501   2.469       .  S
Zr1495     O1503   2.366       .  S
Zr1495     O1504   2.396       .  S
O1496      H1560   0.990       .  S
O1497      C1517   1.286       .  A
O1498      C1519   1.297       .  A
O1499     Zr1509   2.346   1_565  S
O1500     Zr1508   2.337       .  S
O1500      C1519   1.259       .  A
O1501      C1518   1.284       .  A
O1502     Zr1510   2.551   1_565  S
O1502      C1517   1.313       .  A
O1503     Zr1508   2.381       .  S
O1503     Zr1510   2.330   1_565  S
O1504     Zr1510   2.324   1_565  S
O1504      H1539   0.962       .  S
O1505     Zr1525   2.449       .  S
O1505      H1542   0.965       .  S
O1506     Zr1509   2.400   1_565  S
O1506     Zr1525   2.426       .  S
Zr1507     O1526   2.433       .  S
Zr1507     O1534   2.471       .  S
Zr1507     O1522   2.484       .  S
Zr1507     O1515   2.364   1_545  S
Zr1507     O1516   2.372       .  S
Zr1508     O1521   2.355   1_565  S
Zr1508     O1514   2.414   1_565  S
Zr1508     O1520   2.435       .  S
Zr1509     O1535   2.316       .  S
Zr1509     O1516   2.391       .  S
Zr1509     O1511   2.433       .  S
Zr1510     O1513   2.435       .  S
Zr1510     O1514   2.427       .  S
Zr1510     O1536   2.438       .  S
Zr1510     O1537   2.435       .  S
Zr1510     O1512   2.434       .  S
O1511      H1548   0.987       .  S
O1512      H1543   0.989   1_545  S
O1512      H1557   0.990       .  S
O1514      H1540   0.966       .  S
O1515     Zr1525   2.305       .  S
O1516     Zr1525   2.332   1_545  S
O1516      H1541   0.964       .  S
C1517      C1628   1.537       .  S
C1518      C1585   1.487       .  S
O1520      H1556   0.991       .  S
O1521      C1523   1.257       .  A
C1523      C2292   1.475   1_544  S
O1524     Zr1525   2.439       .  S
O1524      H1553   0.990       .  S
Zr1525     O1530   2.561   1_565  S
Zr1525     O1528   2.435       .  S
Zr1525     O1529   2.437       .  S
O1526      C1531   1.283       .  A
O1527      H1559   0.989   1_455  S
O1528      H1545   0.990       .  S
O1529      H1549   0.990       .  S
O1529      H1558   0.989       .  S
O1530      C1531   1.316       .  A
O1532      H1551   0.990       .  S
O1532      H1555   0.990       .  S
O1533      H1547   0.989       .  S
O1533      H1554   0.990       .  S
O1534      C1538   1.302       .  A
O1535      C1538   1.256       .  A
O1536      H1546   0.990       .  S
O1537      H1550   0.990       .  S
Zr1561     O1563   2.368       .  S
Zr1561     O1564   2.530       .  S
Zr1561     O1567   2.600       .  S
Zr1561     O1569   2.377   1_545  S
Zr1561     O1570   2.370       .  S
O1562      H1618   0.990       .  S
O1562      H1626   0.990       .  S
O1563      C1583   1.270       .  A
O1565     Zr1575   2.374       .  S
O1565      C1584   1.262       .  A
O1566     Zr1574   2.339       .  S
O1566      C1585   1.253       .  A
O1567      C1584   1.327       .  A
O1568     Zr1576   2.576   1_545  S
O1568      C1583   1.321       .  A
O1569     Zr1576   2.308       .  S
O1570     Zr1575   2.383       .  S
O1570     Zr1576   2.329   1_545  S
O1570      H1605   0.964       .  S
O1571     Zr1574   2.435   1_545  S
O1571     Zr1591   2.427       .  S
O1571      H1608   0.966       .  S
O1572     Zr1591   2.444       .  S
Zr1573     O1592   2.402       .  S
Zr1573     O1600   2.467       .  S
Zr1573     O1588   2.568       .  S
Zr1573     O1581   2.329       .  S
Zr1573     O1582   2.410   1_565  S
Zr1574     O1587   2.371       .  S
Zr1574     O1581   2.359       .  S
Zr1574     O1593   2.449       .  S
Zr1575     O1601   2.347   1_545  S
Zr1575     O1579   2.418   1_545  S
Zr1575     O1599   2.451       .  S
Zr1576     O1579   2.440       .  S
Zr1576     O1580   2.447       .  S
Zr1576     O1602   2.431       .  S
Zr1576     O1603   2.434       .  S
Zr1576     O1578   2.436       .  S
O1577      H1614   0.990       .  S
O1578      H1609   0.990       .  S
O1578      H1623   0.990       .  S
O1580      H1606   0.966       .  S
O1581     Zr1591   2.329   1_565  S
O1582     Zr1591   2.342       .  S
O1582      H1607   0.965       .  S
O1586      H1622   0.989       .  S
O1587      C1589   1.264       .  A
O1588      C1589   1.318       .  A
O1590     Zr1591   2.433       .  S
O1590      H1619   0.990       .  S
Zr1591     O1596   2.541   1_545  S
Zr1591     O1594   2.436   1_545  S
Zr1591     O1595   2.441       .  S
O1592      C1597   1.277       .  A
O1593      H1610   0.989       .  S
O1593      H1625   0.988       .  S
O1594      H1611   0.990       .  S
O1595      H1615   0.990       .  S
O1595      H1624   0.989       .  S
O1596      C1597   1.311       .  A
C1597      C1635   1.501       .  S
O1598      H1617   0.990       .  S
O1598      H1621   0.990       .  S
O1599      H1613   0.991       .  S
O1599      H1620   0.990       .  S
O1600      C1604   1.284       .  A
O1602      H1612   0.990       .  S
O1603      H1616   0.990       .  S
C1604      C2211   1.476   1_565  S
N1627      C1631   1.371       .  A
N1627      C1628   1.387       .  A
C1628      C1629   1.384       .  A
C1629      C1630   1.364       .  A
C1629      H1632   1.084       .  S
C1630      C1631   1.381       .  A
C1630      H1633   1.083       .  S
C1631      C1663   1.507       .  S
N1634      C1638   1.384       .  A
N1634      C1635   1.382       .  A
C1635      C1636   1.374       .  A
C1636      C1637   1.346       .  A
C1636      H1639   1.082       .  S
C1637      C1638   1.357       .  A
C1637      H1640   1.068       .  S
C1638      C1730   1.525       .  S
Zr1641     O1643   2.434       .  S
Zr1641     O1644   2.460       .  S
Zr1641     O1647   2.508       .  S
Zr1641     O1649   2.360       .  S
Zr1641     O1650   2.353       .  S
Zr1641     O1651   2.434       .  S
Zr1641     O1652   2.400       .  S
Zr1641     O1642   2.425       .  S
O1642      H1698   0.990       .  S
O1642      H1706   0.990       .  S
O1643      C1663   1.284       .  A
O1644      C1665   1.288       .  A
O1645     Zr1655   2.373       .  S
O1645      C1664   1.268       .  A
O1646     Zr1654   2.424       .  S
O1646      C1665   1.271   1_545  A
O1647      C1664   1.310       .  A
O1648     Zr1656   2.518   1_565  S
O1648      C1663   1.306       .  A
O1649     Zr1654   2.349   1_565  S
O1649     Zr1656   2.299   1_565  S
O1650     Zr1655   2.365       .  S
O1650     Zr1656   2.340   1_565  S
O1650      H1685   0.961       .  S
O1651     Zr1654   2.421   1_565  S
O1651     Zr1671   2.419       .  S
O1651      H1688   0.963       .  S
O1652     Zr1655   2.384       .  S
O1652     Zr1671   2.451       .  S
Zr1653     O1672   2.451       .  S
Zr1653     O1680   2.434       .  S
Zr1653     O1668   2.475       .  S
Zr1653     O1659   2.420       .  S
Zr1653     O1660   2.400       .  S
Zr1653     O1661   2.341       .  S
Zr1653     O1662   2.368       .  S
Zr1653     O1678   2.430       .  S
Zr1654     O1667   2.397       .  S
Zr1654     O1660   2.389       .  S
Zr1654     O1661   2.374       .  S
Zr1654     O1673   2.439       .  S
Zr1654     O1666   2.452       .  S
Zr1655     O1681   2.325   1_565  S
Zr1655     O1659   2.393   1_565  S
Zr1655     O1662   2.373   1_565  S
Zr1655     O1657   2.436       .  S
Zr1655     O1679   2.444       .  S
Zr1656     O1659   2.415       .  S
Zr1656     O1660   2.425       .  S
Zr1656     O1682   2.431       .  S
Zr1656     O1683   2.433       .  S
Zr1656     O1658   2.436       .  S
O1657      H1694   0.990       .  S
O1658      H1689   0.990       .  S
O1658      H1703   0.990       .  S
O1660      H1686   0.966       .  S
O1661     Zr1671   2.341   1_545  S
O1662     Zr1671   2.291   1_545  S
O1662      H1687   0.955       .  S
C1665      C1731   1.431       .  S
O1666      H1702   0.989       .  S
O1667      C1669   1.275       .  A
O1668      C1669   1.303       .  A
C1669      C1774   1.480       .  S
O1670     Zr1671   2.433       .  S
O1670      H1699   0.990       .  S
Zr1671     O1676   2.560   1_565  S
Zr1671     O1674   2.435   1_565  S
Zr1671     O1675   2.437       .  S
O1672      C1677   1.287       .  A
O1673      H1690   0.987   1_545  S
O1673      H1705   0.989       .  S
O1674      H1691   0.990       .  S
O1675      H1695   0.990       .  S
O1675      H1704   0.990       .  S
O1676      C1677   1.313       .  A
O1678      H1697   0.990       .  S
O1678      H1701   0.989       .  S
O1679      H1693   0.990       .  S
O1679      H1700   0.989   1_565  S
O1680      C1684   1.286       .  A
O1681      C1684   1.264       .  A
O1682      H1692   0.991   1_545  S
O1683      H1696   0.990       .  S
C1684      C2438   1.374   1_554  S
Zr1707     O1709   2.421       .  S
Zr1707     O1710   2.462       .  S
Zr1707     O1713   2.568       .  S
Zr1707     O1715   2.385       .  S
Zr1707     O1716   2.334       .  S
Zr1707     O1717   2.432   1_565  S
Zr1707     O1718   2.402   1_565  S
Zr1707     O1708   2.429   1_565  S
O1708      H1764   0.990       .  S
O1708      H1772   0.990       .  S
O1709      C1729   1.282       .  A
O1710      C1731   1.290       .  A
O1711     Zr1721   2.402   1_565  S
O1711      C1730   1.272       .  A
O1712     Zr1720   2.412   1_565  S
O1712      C1731   1.270       .  A
O1713      C1730   1.321       .  A
O1714     Zr1722   2.547       .  S
O1714      C1729   1.308       .  A
O1715     Zr1720   2.386   1_565  S
O1715     Zr1722   2.310       .  S
O1716     Zr1721   2.376   1_565  S
O1716     Zr1722   2.333       .  S
O1716      H1751   0.952       .  S
O1717     Zr1720   2.430       .  S
O1717     Zr1737   2.407       .  S
O1717      H1754   0.965       .  S
O1718     Zr1721   2.389       .  S
O1718     Zr1737   2.454       .  S
Zr1719     O1738   2.381       .  S
Zr1719     O1746   2.461       .  S
Zr1719     O1734   2.464       .  S
Zr1719     O1725   2.391   1_545  S
Zr1719     O1726   2.399   1_545  S
Zr1719     O1727   2.323       .  S
Zr1719     O1728   2.346       .  S
Zr1719     O1744   2.426   1_545  S
Zr1720     O1733   2.466       .  S
Zr1720     O1726   2.404   1_545  S
Zr1720     O1727   2.358       .  S
Zr1720     O1739   2.419       .  S
Zr1720     O1732   2.442   1_545  S
Zr1721     O1747   2.356       .  S
Zr1721     O1725   2.412   1_545  S
Zr1721     O1728   2.396       .  S
Zr1721     O1723   2.437       .  S
Zr1721     O1745   2.436   1_545  S
Zr1722     O1725   2.437       .  S
Zr1722     O1726   2.424       .  S
Zr1722     O1748   2.438       .  S
Zr1722     O1749   2.433       .  S
Zr1722     O1724   2.437       .  S
O1723      H1760   0.990       .  S
O1724      H1755   0.990       .  S
O1724      H1769   0.990       .  S
O1726      H1752   0.966       .  S
O1727     Zr1737   2.324       .  S
O1728     Zr1737   2.287       .  S
O1728      H1753   0.962       .  S
O1732      H1768   0.989       .  S
O1733      C1735   1.277       .  A
O1734      C1735   1.295       .  A
O1736     Zr1737   2.437       .  S
O1736      H1765   0.989       .  S
Zr1737     O1742   2.573       .  S
Zr1737     O1740   2.431       .  S
Zr1737     O1741   2.442       .  S
O1738      C1743   1.275       .  A
O1739      H1756   0.988       .  S
O1739      H1771   0.982       .  S
O1740      H1757   0.990       .  S
O1741      H1761   0.990       .  S
O1741      H1770   0.990       .  S
O1742      C1743   1.316       .  A
C1743      C1781   1.497       .  S
O1744      H1763   0.990   1_565  S
O1744      H1767   0.990       .  S
O1745      H1759   0.990       .  S
O1745      H1766   0.988       .  S
O1746      C1750   1.292       .  A
O1747      C1750   1.265       .  A
O1748      H1758   0.990       .  S
O1749      H1762   0.990       .  S
C1750      C2372   1.380       .  S
N1773      C1777   1.372       .  A
N1773      C1774   1.369       .  A
C1774      C1775   1.365       .  A
C1775      C1776   1.350       .  A
C1775      H1778   1.086       .  S
C1776      C1777   1.382       .  A
C1776      H1779   1.059       .  S
C1777      C1955   1.513       .  S
N1780      C1784   1.369       .  A
N1780      C1781   1.367       .  A
C1781      C1782   1.384       .  A
C1782      C1783   1.348       .  A
C1782      H1785   1.076       .  S
C1783      C1784   1.368       .  A
C1783      H1786   1.085       .  S
C1784      C2022   1.490       .  S
Zr1787     O1789   2.371       .  S
Zr1787     O1790   2.527       .  S
Zr1787     O1793   2.589       .  S
Zr1787     O1795   2.377       .  S
Zr1787     O1796   2.369       .  S
O1788      H1852   0.990       .  S
O1789      C1809   1.271       .  A
O1790      C1811   1.295       .  A
O1791     Zr1801   2.372       .  S
O1791      C1810   1.262       .  A
O1792     Zr1800   2.338       .  S
O1793      C1810   1.324       .  A
O1794     Zr1802   2.575       .  S
O1794      C1809   1.320       .  A
O1795     Zr1802   2.312       .  S
O1796     Zr1801   2.383       .  S
O1796     Zr1802   2.333       .  S
O1796      H1831   0.961       .  S
O1797     Zr1800   2.434       .  S
O1797     Zr1817   2.428       .  S
O1797      H1834   0.966       .  S
O1798     Zr1817   2.442       .  S
Zr1799     O1818   2.399       .  S
Zr1799     O1826   2.461       .  S
Zr1799     O1814   2.555       .  S
Zr1799     O1807   2.331       .  S
Zr1799     O1808   2.410       .  S
Zr1800     O1813   2.369       .  S
Zr1800     O1807   2.360       .  S
Zr1800     O1819   2.450       .  S
Zr1801     O1827   2.343       .  S
Zr1801     O1805   2.422       .  S
Zr1801     O1825   2.451       .  S
Zr1802     O1805   2.439       .  S
Zr1802     O1806   2.446       .  S
Zr1802     O1828   2.434       .  S
Zr1802     O1829   2.437       .  S
Zr1802     O1804   2.437       .  S
O1803      H1840   0.990       .  S
O1804      H1835   0.990       .  S
O1804      H1849   0.990       .  S
O1806      H1832   0.966       .  S
O1807     Zr1817   2.327       .  S
O1808     Zr1817   2.337       .  S
O1808      H1833   0.965       .  S
C1809      C1920   1.496       .  S
C1811      C1876   1.487       .  S
O1812      H1848   0.988       .  S
O1813      C1815   1.264       .  A
O1814      C1815   1.316       .  A
O1816     Zr1817   2.432       .  S
O1816      H1845   0.990       .  S
Zr1817     O1822   2.542       .  S
Zr1817     O1820   2.433       .  S
Zr1817     O1821   2.441       .  S
O1818      C1823   1.276       .  A
O1819      H1836   0.989       .  S
O1819      H1851   0.987       .  S
O1820      H1837   0.990       .  S
O1821      H1841   0.991       .  S
O1821      H1850   0.989       .  S
O1822      C1823   1.310       .  A
O1824      H1843   0.990       .  S
O1824      H1847   0.990       .  S
O1825      H1839   0.991       .  S
O1825      H1846   0.990       .  S
O1827      C1830   1.256       .  A
O1828      H1838   0.990       .  S
O1829      H1842   0.990       .  S
C1830      C2569   1.476   1_554  S
Zr1853     O1855   2.457       .  S
Zr1853     O1856   2.471       .  S
Zr1853     O1859   2.470   1_655  S
Zr1853     O1861   2.366       .  S
Zr1853     O1862   2.394       .  S
O1854      H1910   0.990       .  S
O1854      H1918   0.990       .  S
O1855      C1875   1.287       .  A
O1856      C1877   1.297       .  A
O1857     Zr1867   2.344       .  S
O1857      C1876   1.254       .  A
O1858     Zr1866   2.341       .  S
O1858      C1877   1.260       .  A
O1860     Zr1868   2.554       .  S
O1860      C1875   1.313       .  A
O1861     Zr1866   2.378       .  S
O1861     Zr1868   2.331       .  S
O1862     Zr1868   2.323       .  S
O1862      H1897   0.962       .  S
O1863     Zr1883   2.448       .  S
O1863      H1900   0.965       .  S
O1864     Zr1867   2.397       .  S
O1864     Zr1883   2.431       .  S
Zr1865     O1884   2.432       .  S
Zr1865     O1892   2.468       .  S
Zr1865     O1880   2.489       .  S
Zr1865     O1873   2.360       .  S
Zr1865     O1874   2.376       .  S
Zr1866     O1879   2.350       .  S
Zr1866     O1872   2.416       .  S
Zr1866     O1878   2.440       .  S
Zr1867     O1893   2.322       .  S
Zr1867     O1874   2.394       .  S
Zr1867     O1869   2.434       .  S
Zr1868     O1871   2.430       .  S
Zr1868     O1872   2.430       .  S
Zr1868     O1894   2.438       .  S
Zr1868     O1895   2.433       .  S
Zr1868     O1870   2.430       .  S
O1869      H1906   0.985       .  S
O1870      H1901   0.989       .  S
O1870      H1915   0.990       .  S
O1872      H1898   0.966       .  S
O1873     Zr1883   2.300       .  S
O1874     Zr1883   2.331       .  S
O1874      H1899   0.964       .  S
O1878      H1914   0.991       .  S
O1880      C1881   1.287       .  A
C1881      C2518   1.473       .  S
O1882     Zr1883   2.436       .  S
O1882      H1911   0.990       .  S
Zr1883     O1888   2.574       .  S
Zr1883     O1886   2.435       .  S
Zr1883     O1887   2.431       .  S
O1884      C1889   1.283       .  A
O1885      H1902   0.990       .  S
O1885      H1917   0.989       .  S
O1886      H1903   0.990       .  S
O1887      H1907   0.990       .  S
O1887      H1916   0.989       .  S
O1888      C1889   1.318       .  A
C1889      C1927   1.537       .  S
O1890      H1909   0.990   1_655  S
O1890      H1913   0.990       .  S
O1891      H1912   0.989       .  S
O1892      C1896   1.301       .  A
O1893      C1896   1.257       .  A
O1894      H1904   0.990       .  S
O1895      H1908   0.990       .  S
N1919      C1923   1.386       .  A
N1919      C1920   1.390       .  A
C1920      C1921   1.356       .  A
C1921      C1922   1.308       .  A
C1921      H1924   1.073       .  S
C1922      C1923   1.374       .  A
C1922      H1925   1.072       .  S
C1923      C1961   1.515       .  S
N1926      C1930   1.374       .  A
N1926      C1927   1.384       .  A
C1927      C1928   1.382       .  A
C1928      C1929   1.366       .  A
C1928      H1931   1.083       .  S
C1929      C1930   1.382       .  A
C1929      H1932   1.083       .  S
C1930      C2035   1.522       .  S
Zr1933     O1935   2.424       .  S
Zr1933     O1936   2.464       .  S
Zr1933     O1939   2.569       .  S
Zr1933     O1941   2.379       .  S
Zr1933     O1942   2.336       .  S
Zr1933     O1943   2.441       .  S
Zr1933     O1944   2.405       .  S
Zr1933     O1934   2.433       .  S
O1934      H1990   0.990       .  S
O1934      H1998   0.990       .  S
O1935      C1955   1.282       .  A
O1936      C1957   1.290       .  A
O1937     Zr1947   2.402       .  S
O1937      C1956   1.272       .  A
O1938     Zr1946   2.414       .  S
O1938      C1957   1.270       .  A
O1939      C1956   1.321       .  A
O1940     Zr1948   2.552       .  S
O1940      C1955   1.310       .  A
O1941     Zr1946   2.384       .  S
O1941     Zr1948   2.308       .  S
O1942     Zr1947   2.376       .  S
O1942     Zr1948   2.333       .  S
O1942      H1977   0.952       .  S
O1943     Zr1946   2.433       .  S
O1943     Zr1963   2.416       .  S
O1943      H1980   0.965       .  S
O1944     Zr1947   2.392       .  S
O1944     Zr1963   2.457       .  S
Zr1945     O1964   2.371       .  S
Zr1945     O1972   2.459       .  S
Zr1945     O1960   2.457       .  S
Zr1945     O1951   2.390       .  S
Zr1945     O1952   2.397       .  S
Zr1945     O1953   2.325       .  S
Zr1945     O1954   2.351       .  S
Zr1945     O1970   2.428       .  S
Zr1946     O1959   2.466       .  S
Zr1946     O1952   2.405       .  S
Zr1946     O1953   2.356       .  S
Zr1946     O1965   2.419       .  S
Zr1946     O1958   2.440       .  S
Zr1947     O1973   2.360       .  S
Zr1947     O1951   2.411       .  S
Zr1947     O1954   2.396       .  S
Zr1947     O1949   2.435       .  S
Zr1947     O1971   2.442       .  S
Zr1948     O1951   2.437       .  S
Zr1948     O1952   2.426       .  S
Zr1948     O1974   2.439       .  S
Zr1948     O1975   2.435       .  S
Zr1948     O1950   2.439       .  S
O1949      H1986   0.990       .  S
O1950      H1981   0.990       .  S
O1950      H1995   0.990       .  S
O1952      H1978   0.966       .  S
O1953     Zr1963   2.321       .  S
O1954     Zr1963   2.289       .  S
O1954      H1979   0.962       .  S
C1957      C2023   1.430       .  S
O1958      H1994   0.990       .  S
O1959      C1961   1.276       .  A
O1960      C1961   1.293       .  A
O1962     Zr1963   2.435       .  S
O1962      H1991   0.990       .  S
Zr1963     O1968   2.580       .  S
Zr1963     O1966   2.434       .  S
Zr1963     O1967   2.439       .  S
O1964      C1969   1.273       .  A
O1965      H1982   0.988       .  S
O1965      H1997   0.982       .  S
O1966      H1983   0.990       .  S
O1967      H1987   0.990       .  S
O1967      H1996   0.990       .  S
O1968      C1969   1.318       .  A
O1970      H1989   0.990       .  S
O1970      H1993   0.990       .  S
O1971      H1985   0.990       .  S
O1971      H1992   0.988       .  S
O1972      C1976   1.292       .  A
O1973      C1976   1.266       .  A
O1974      H1984   0.990       .  S
O1975      H1988   0.990       .  S
C1976      C2730   1.381   1_554  S
Zr1999     O2001   2.432       .  S
Zr1999     O2002   2.459       .  S
Zr1999     O2005   2.520       .  S
Zr1999     O2007   2.369       .  S
Zr1999     O2008   2.351       .  S
Zr1999     O2009   2.435       .  S
Zr1999     O2010   2.394       .  S
Zr1999     O2000   2.417       .  S
O2000      H2056   0.990       .  S
O2000      H2064   0.990       .  S
O2001      C2021   1.282       .  A
O2002      C2023   1.287       .  A
O2003     Zr2013   2.363       .  S
O2003      C2022   1.266       .  A
O2004     Zr2012   2.414       .  S
O2004      C2023   1.270       .  A
O2005      C2022   1.312       .  A
O2006     Zr2014   2.518       .  S
O2006      C2021   1.305       .  A
O2007     Zr2012   2.355       .  S
O2007     Zr2014   2.306       .  S
O2008     Zr2013   2.368       .  S
O2008     Zr2014   2.344       .  S
O2008      H2043   0.961       .  S
O2009     Zr2012   2.419       .  S
O2009     Zr2029   2.417       .  S
O2009      H2046   0.964       .  S
O2010     Zr2013   2.382       .  S
O2010     Zr2029   2.447       .  S
Zr2011     O2030   2.446       .  S
Zr2011     O2038   2.432       .  S
Zr2011     O2026   2.477       .  S
Zr2011     O2017   2.419       .  S
Zr2011     O2018   2.393       .  S
Zr2011     O2019   2.342       .  S
Zr2011     O2020   2.370       .  S
Zr2011     O2036   2.429       .  S
Zr2012     O2025   2.399       .  S
Zr2012     O2018   2.383       .  S
Zr2012     O2019   2.373       .  S
Zr2012     O2031   2.430       .  S
Zr2012     O2024   2.448       .  S
Zr2013     O2039   2.317       .  S
Zr2013     O2017   2.397       .  S
Zr2013     O2020   2.364       .  S
Zr2013     O2015   2.439       .  S
Zr2013     O2037   2.444       .  S
Zr2014     O2017   2.416       .  S
Zr2014     O2018   2.421       .  S
Zr2014     O2040   2.431       .  S
Zr2014     O2041   2.435       .  S
Zr2014     O2016   2.436       .  S
O2015      H2052   0.990       .  S
O2016      H2047   0.991       .  S
O2016      H2061   0.990       .  S
O2018      H2044   0.966       .  S
O2019     Zr2029   2.344       .  S
O2020     Zr2029   2.291       .  S
O2020      H2045   0.955       .  S
O2024      H2060   0.989       .  S
O2025      C2027   1.275       .  A
O2026      C2027   1.303       .  A
O2028     Zr2029   2.435       .  S
O2028      H2057   0.990       .  S
Zr2029     O2034   2.562       .  S
Zr2029     O2032   2.436       .  S
Zr2029     O2033   2.439       .  S
O2030      C2035   1.286       .  A
O2031      H2048   0.987       .  S
O2031      H2063   0.990       .  S
O2032      H2049   0.990       .  S
O2033      H2053   0.990       .  S
O2033      H2062   0.990       .  S
O2034      C2035   1.313       .  A
O2036      H2055   0.990       .  S
O2036      H2059   0.990       .  S
O2037      H2051   0.990       .  S
O2037      H2058   0.989       .  S
O2038      C2042   1.285       .  A
O2039      C2042   1.263       .  A
O2040      H2050   0.990       .  S
O2041      H2054   0.990       .  S
C2042      C2664   1.374       .  S
C2065      C2071   1.557       .  S
C2065      C2069   1.557       .  S
C2065      N2322   1.564       .  S
C2066      H2073   1.083       .  S
C2066      C2067   1.404       .  D
C2067      C2068   1.590       .  S
C2067      N2113   1.510       .  S
C2068      C2070   1.595       .  S
C2068      H2074   1.110       .  S
C2069      H2075   1.086       .  S
C2070      N2141   1.505       .  S
C2071      H2076   1.081       .  S
C2071      C2072   1.371       .  D
C2072      N2614   1.516       .  S
C2077      C2078   1.547       .  S
C2077      C2083   1.560       .  S
C2077      C2081   1.561       .  S
C2077      N2607   1.553       .  S
C2078      H2085   1.086       .  S
C2078      C2079   1.386       .  D
C2079      C2080   1.592       .  S
C2079      N2148   1.499       .  S
C2080      C2084   1.611       .  S
C2080      C2082   1.581       .  S
C2080      H2086   1.110       .  S
C2081      H2087   1.081       .  S
C2081      C2082   1.397       .  D
C2082      N2120   1.506       .  S
C2083      H2088   1.078       .  S
C2083      C2084   1.375       .  D
C2084      N2315   1.508       .  S
C2089      C2095   1.554       .  S
C2089      N2127   1.562       .  S
C2090      H2097   1.082       .  S
C2090      C2091   1.405       .  D
C2091      C2092   1.589       .  S
C2091      N2176   1.511       .  S
C2092      C2096   1.629   1_556  S
C2092      C2094   1.597       .  S
C2092      H2098   1.110       .  S
C2093      H2099   1.086       .  S
C2093      C2094   1.381       .  D
C2094      N2468   1.506       .  S
C2095      H2100   1.081       .  S
C2101      C2102   1.547       .  S
C2101      C2107   1.560       .  S
C2101      C2105   1.562       .  S
C2101      N2162   1.553       .  S
C2102      H2109   1.086       .  S
C2102      C2103   1.386       .  D
C2103      C2104   1.590       .  S
C2103      N2461   1.497       .  S
C2104      C2108   1.611       .  S
C2104      C2106   1.580       .  S
C2104      H2110   1.109       .  S
C2105      H2111   1.081       .  S
C2105      C2106   1.398       .  D
C2106      N2169   1.505       .  S
C2107      H2112   1.078       .  S
C2107      C2108   1.375       .  D
C2108      N2134   1.509       .  S
N2113      C2117   1.356       .  A
N2113      C2114   1.389       .  A
C2114      C2115   1.382       .  A
C2114      C2498   1.510       .  S
C2115      C2116   1.340       .  A
C2115      H2118   1.080       .  S
C2116      C2117   1.370       .  A
C2116      H2119   1.083       .  S
C2117      C2207   1.441       .  S
N2120      C2124   1.359       .  A
N2120      C2121   1.383       .  A
C2121      C2122   1.382       .  A
C2121      C2277   1.494       .  S
C2122      C2123   1.337       .  A
C2122      H2125   1.079       .  S
C2123      C2124   1.372       .  A
C2123      H2126   1.085       .  S
C2124      C2584   1.448       .  S
N2127      C2131   1.383       .  A
N2127      C2128   1.380       .  A
C2128      C2129   1.374       .  A
C2128      C2511   1.495       .  S
C2129      C2130   1.345       .  A
C2129      H2132   1.082       .  S
C2130      C2131   1.357       .  A
C2130      H2133   1.068       .  S
C2131      C2644   1.525       .  S
N2134      C2138   1.373       .  A
N2134      C2135   1.387       .  A
C2135      C2136   1.385       .  A
C2135      C2563   1.539       .  S
C2136      C2137   1.363       .  A
C2136      H2139   1.084       .  S
C2137      C2138   1.381       .  A
C2137      H2140   1.083       .  S
C2138      C2709   1.510       .  S
N2141      C2145   1.370       .  A
N2141      C2142   1.369       .  A
C2142      C2143   1.384       .  A
C2142      C2657   1.500       .  S
C2143      C2144   1.349       .  A
C2143      H2146   1.077       .  S
C2144      C2145   1.369       .  A
C2144      H2147   1.085       .  S
C2145      C2352   1.491       .  S
N2148      C2152   1.371       .  A
N2148      C2149   1.370       .  A
C2149      C2150   1.379       .  A
C2149      C2417   1.509       .  S
C2150      C2151   1.349       .  A
C2150      H2153   1.057       .  S
C2151      C2152   1.364       .  A
C2151      H2154   1.085       .  S
C2152      C2715   1.483       .  S
N2155      C2159   1.374       .  A
N2155      C2156   1.382       .  A
C2156      C2157   1.383       .  A
C2156      C2219   1.535       .  S
C2157      C2158   1.366       .  A
C2157      H2160   1.083       .  S
C2158      C2159   1.382       .  A
C2158      H2161   1.083       .  S
C2159      C2365   1.523       .  S
N2162      C2166   1.385       .  A
N2162      C2163   1.389       .  A
C2163      C2164   1.357       .  A
C2163      C2271   1.494       .  S
C2164      C2165   1.310       .  A
C2164      H2167   1.075       .  S
C2165      C2166   1.374       .  A
C2165      H2168   1.071       .  S
C2166      C2423   1.515       .  S
N2169      C2173   1.357       .  A
N2169      C2170   1.381       .  A
C2170      C2171   1.382       .  A
C2170      C2503   1.489       .  S
C2171      C2172   1.337       .  A
C2171      H2174   1.078       .  S
C2172      C2173   1.371       .  A
C2172      H2175   1.085       .  S
C2173      C2226   1.442       .  S
N2176      C2180   1.355       .  A
N2176      C2177   1.391       .  A
C2177      C2178   1.381       .  A
C2177      C2272   1.511       .  S
C2178      C2179   1.340       .  A
C2178      H2181   1.080       .  S
C2179      C2180   1.369       .  A
C2179      H2182   1.084       .  S
C2180      C2565   1.437       .  S
Zr2183     O2185   2.449       .  S
Zr2183     O2186   2.474       .  S
Zr2183     O2189   2.465       .  S
Zr2183     O2191   2.369       .  S
Zr2183     O2192   2.400       .  S
O2184      H2248   0.990       .  S
O2185      C2205   1.286       .  A
O2186      C2207   1.298       .  A
O2187     Zr2197   2.345   1_565  S
O2188     Zr2196   2.336       .  S
O2188      C2207   1.259       .  A
O2189      C2206   1.284       .  A
O2190     Zr2198   2.551   1_565  S
O2190      C2205   1.313       .  A
O2191     Zr2196   2.372       .  S
O2191     Zr2198   2.329   1_565  S
O2192     Zr2198   2.327   1_565  S
O2192      H2227   0.962       .  S
O2193     Zr2213   2.445       .  S
O2193      H2230   0.965       .  S
O2194     Zr2197   2.391   1_565  S
O2194     Zr2213   2.425       .  S
Zr2195     O2214   2.438       .  S
Zr2195     O2222   2.478       .  S
Zr2195     O2210   2.488       .  S
Zr2195     O2203   2.361   1_545  S
Zr2195     O2204   2.372       .  S
Zr2196     O2209   2.348   1_565  S
Zr2196     O2202   2.411   1_565  S
Zr2196     O2208   2.438       .  S
Zr2197     O2223   2.308       .  S
Zr2197     O2204   2.392       .  S
Zr2197     O2199   2.436       .  S
Zr2198     O2201   2.435       .  S
Zr2198     O2202   2.425       .  S
Zr2198     O2224   2.438       .  S
Zr2198     O2225   2.437       .  S
Zr2198     O2200   2.431       .  S
O2199      H2236   0.987       .  S
O2200      H2231   0.989   1_545  S
O2200      H2245   0.990       .  S
O2202      H2228   0.966       .  S
O2203     Zr2213   2.302       .  S
O2204     Zr2213   2.332   1_545  S
O2204      H2229   0.964       .  S
C2205      C2316   1.537       .  S
C2206      C2273   1.484       .  S
O2208      H2244   0.991       .  S
O2209      C2211   1.255       .  A
O2212     Zr2213   2.434       .  S
O2212      H2241   0.990       .  S
Zr2213     O2218   2.563   1_565  S
Zr2213     O2216   2.437       .  S
Zr2213     O2217   2.435       .  S
O2214      C2219   1.285       .  A
O2215      H2247   0.989   1_455  S
O2216      H2233   0.990       .  S
O2217      H2237   0.990       .  S
O2217      H2246   0.990       .  S
O2218      C2219   1.316       .  A
O2220      H2239   0.990       .  S
O2220      H2243   0.990       .  S
O2221      H2235   0.988       .  S
O2221      H2242   0.990       .  S
O2222      C2226   1.303       .  A
O2223      C2226   1.255       .  A
O2224      H2234   0.990       .  S
O2225      H2238   0.990       .  S
Zr2249     O2251   2.370       .  S
Zr2249     O2252   2.531       .  S
Zr2249     O2255   2.595       .  S
Zr2249     O2257   2.377   1_545  S
Zr2249     O2258   2.375       .  S
O2250      H2306   0.990       .  S
O2250      H2314   0.990       .  S
O2251      C2271   1.270       .  A
O2253     Zr2263   2.376       .  S
O2253      C2272   1.262       .  A
O2254     Zr2262   2.341       .  S
O2254      C2273   1.253       .  A
O2255      C2272   1.326       .  A
O2256     Zr2264   2.571   1_545  S
O2256      C2271   1.320       .  A
O2257     Zr2264   2.315       .  S
O2258     Zr2263   2.379       .  S
O2258     Zr2264   2.329   1_545  S
O2258      H2293   0.952       .  S
O2259     Zr2262   2.433   1_545  S
O2259     Zr2279   2.423       .  S
O2259      H2296   0.966       .  S
O2260     Zr2279   2.447       .  S
Zr2261     O2280   2.395       .  S
Zr2261     O2288   2.466       .  S
Zr2261     O2276   2.573       .  S
Zr2261     O2269   2.331       .  S
Zr2261     O2270   2.410   1_565  S
Zr2262     O2275   2.369       .  S
Zr2262     O2269   2.361       .  S
Zr2262     O2281   2.446       .  S
Zr2263     O2289   2.348   1_545  S
Zr2263     O2267   2.417   1_545  S
Zr2263     O2287   2.447       .  S
Zr2264     O2267   2.436       .  S
Zr2264     O2268   2.445       .  S
Zr2264     O2290   2.434       .  S
Zr2264     O2291   2.435       .  S
Zr2264     O2266   2.432       .  S
O2265      H2302   0.990       .  S
O2266      H2297   0.990       .  S
O2266      H2311   0.990       .  S
O2268      H2294   0.966       .  S
O2269     Zr2279   2.325   1_565  S
O2270     Zr2279   2.342       .  S
O2270      H2295   0.966       .  S
O2274      H2310   0.988       .  S
O2275      C2277   1.264       .  A
O2276      C2277   1.320       .  A
O2278     Zr2279   2.435       .  S
O2278      H2307   0.990       .  S
Zr2279     O2284   2.542   1_545  S
Zr2279     O2282   2.436   1_545  S
Zr2279     O2283   2.441       .  S
O2280      C2285   1.275       .  A
O2281      H2298   0.989       .  S
O2281      H2313   0.987       .  S
O2282      H2299   0.990       .  S
O2283      H2303   0.991       .  S
O2283      H2312   0.990       .  S
O2284      C2285   1.311       .  A
C2285      C2323   1.499       .  S
O2286      H2305   0.990   1_655  S
O2286      H2309   0.990       .  S
O2287      H2301   0.990       .  S
O2287      H2308   0.990       .  S
O2288      C2292   1.283       .  A
O2290      H2300   0.990   1_565  S
O2291      H2304   0.990       .  S
N2315      C2319   1.372       .  A
N2315      C2316   1.387       .  A
C2316      C2317   1.384       .  A
C2317      C2318   1.363       .  A
C2317      H2320   1.084       .  S
C2318      C2319   1.380       .  A
C2318      H2321   1.083       .  S
C2319      C2351   1.507       .  S
N2322      C2326   1.384       .  A
N2322      C2323   1.381       .  A
C2323      C2324   1.374       .  A
C2324      C2325   1.344       .  A
C2324      H2327   1.082       .  S
C2325      C2326   1.357       .  A
C2325      H2328   1.070       .  S
C2326      C2418   1.525       .  S
Zr2329     O2331   2.423       .  S
Zr2329     O2332   2.469       .  S
Zr2329     O2335   2.521       .  S
Zr2329     O2337   2.366       .  S
Zr2329     O2338   2.349       .  S
Zr2329     O2339   2.429       .  S
Zr2329     O2340   2.398       .  S
Zr2329     O2330   2.418       .  S
O2330      H2386   0.990       .  S
O2330      H2394   0.990       .  S
O2331      C2351   1.281       .  A
O2332      C2353   1.289       .  A
O2333     Zr2343   2.367       .  S
O2333      C2352   1.268       .  A
O2334     Zr2342   2.420       .  S
O2334      C2353   1.270   1_545  A
O2335      C2352   1.312       .  A
O2336     Zr2344   2.517   1_565  S
O2336      C2351   1.306       .  A
O2337     Zr2342   2.352   1_565  S
O2337     Zr2344   2.304   1_565  S
O2338     Zr2343   2.366       .  S
O2338     Zr2344   2.340   1_565  S
O2338      H2373   0.961       .  S
O2339     Zr2342   2.419   1_565  S
O2339     Zr2359   2.417       .  S
O2339      H2376   0.964       .  S
O2340     Zr2343   2.387       .  S
O2340     Zr2359   2.450       .  S
Zr2341     O2360   2.448       .  S
Zr2341     O2368   2.441       .  S
Zr2341     O2356   2.480       .  S
Zr2341     O2347   2.414       .  S
Zr2341     O2348   2.398       .  S
Zr2341     O2349   2.344       .  S
Zr2341     O2350   2.371       .  S
Zr2341     O2366   2.428       .  S
Zr2342     O2355   2.397       .  S
Zr2342     O2348   2.388       .  S
Zr2342     O2349   2.378       .  S
Zr2342     O2361   2.432       .  S
Zr2342     O2354   2.449       .  S
Zr2343     O2369   2.322   1_565  S
Zr2343     O2347   2.394   1_565  S
Zr2343     O2350   2.369   1_565  S
Zr2343     O2345   2.437       .  S
Zr2343     O2367   2.443   1_565  S
Zr2344     O2347   2.413       .  S
Zr2344     O2348   2.421       .  S
Zr2344     O2370   2.429       .  S
Zr2344     O2371   2.437       .  S
Zr2344     O2346   2.433       .  S
O2345      H2382   0.990       .  S
O2346      H2377   0.990       .  S
O2346      H2391   0.990       .  S
O2348      H2374   0.966       .  S
O2349     Zr2359   2.342   1_545  S
O2350     Zr2359   2.297   1_545  S
O2350      H2375   0.955       .  S
C2353      C2419   1.437       .  S
O2354      H2390   0.989       .  S
O2355      C2357   1.276       .  A
O2356      C2357   1.304       .  A
C2357      C2462   1.483       .  S
O2358     Zr2359   2.436       .  S
O2358      H2387   0.990       .  S
Zr2359     O2364   2.562   1_565  S
Zr2359     O2362   2.437   1_565  S
Zr2359     O2363   2.437       .  S
O2360      C2365   1.286       .  A
O2361      H2378   0.987   1_545  S
O2361      H2393   0.990       .  S
O2362      H2379   0.990       .  S
O2363      H2383   0.990       .  S
O2363      H2392   0.990       .  S
O2364      C2365   1.314       .  A
O2366      H2385   0.990       .  S
O2366      H2389   0.990       .  S
O2367      H2381   0.989   1_545  S
O2367      H2388   0.990       .  S
O2368      C2372   1.287       .  A
O2369      C2372   1.263       .  A
O2370      H2380   0.990   1_545  S
O2371      H2384   0.990       .  S
Zr2395     O2397   2.417       .  S
Zr2395     O2398   2.471       .  S
Zr2395     O2401   2.569       .  S
Zr2395     O2403   2.379       .  S
Zr2395     O2404   2.341       .  S
Zr2395     O2405   2.437   1_565  S
Zr2395     O2406   2.401   1_565  S
Zr2395     O2396   2.434   1_565  S
O2396      H2452   0.990       .  S
O2396      H2460   0.990       .  S
O2397      C2417   1.281       .  A
O2398      C2419   1.292       .  A
O2399     Zr2409   2.398   1_565  S
O2399      C2418   1.271       .  A
O2400     Zr2408   2.416   1_565  S
O2400      C2419   1.271       .  A
O2401      C2418   1.321       .  A
O2402     Zr2410   2.545       .  S
O2402      C2417   1.308       .  A
O2403     Zr2408   2.381   1_565  S
O2403     Zr2410   2.311       .  S
O2404     Zr2409   2.376   1_565  S
O2404     Zr2410   2.337       .  S
O2404      H2439   0.952       .  S
O2405     Zr2408   2.434       .  S
O2405     Zr2425   2.412       .  S
O2405      H2442   0.965       .  S
O2406     Zr2409   2.388       .  S
O2406     Zr2425   2.452       .  S
Zr2407     O2426   2.378       .  S
Zr2407     O2434   2.450       .  S
Zr2407     O2422   2.459       .  S
Zr2407     O2413   2.388   1_545  S
Zr2407     O2414   2.395   1_545  S
Zr2407     O2415   2.328       .  S
Zr2407     O2416   2.354       .  S
Zr2407     O2432   2.432   1_545  S
Zr2408     O2421   2.461       .  S
Zr2408     O2414   2.405   1_545  S
Zr2408     O2415   2.360       .  S
Zr2408     O2427   2.419       .  S
Zr2408     O2420   2.440   1_545  S
Zr2409     O2435   2.350       .  S
Zr2409     O2413   2.408   1_545  S
Zr2409     O2416   2.394       .  S
Zr2409     O2411   2.434       .  S
Zr2409     O2433   2.438   1_545  S
Zr2410     O2413   2.428       .  S
Zr2410     O2414   2.422       .  S
Zr2410     O2436   2.438       .  S
Zr2410     O2437   2.436       .  S
Zr2410     O2412   2.436       .  S
O2411      H2448   0.989       .  S
O2412      H2443   0.990       .  S
O2412      H2457   0.990       .  S
O2414      H2440   0.966       .  S
O2415     Zr2425   2.323       .  S
O2416     Zr2425   2.290       .  S
O2416      H2441   0.963       .  S
O2420      H2456   0.990       .  S
O2421      C2423   1.276       .  A
O2422      C2423   1.294       .  A
O2424     Zr2425   2.434       .  S
O2424      H2453   0.990       .  S
Zr2425     O2430   2.573       .  S
Zr2425     O2428   2.431       .  S
Zr2425     O2429   2.439       .  S
O2426      C2431   1.274       .  A
O2427      H2444   0.988       .  S
O2427      H2459   0.982       .  S
O2428      H2445   0.990       .  S
O2429      H2449   0.990       .  S
O2429      H2458   0.989       .  S
O2430      C2431   1.316       .  A
C2431      C2469   1.499       .  S
O2432      H2451   0.990       .  S
O2432      H2455   0.990       .  S
O2433      H2447   0.990       .  S
O2433      H2454   0.988       .  S
O2434      C2438   1.290       .  A
O2435      C2438   1.266       .  A
O2436      H2446   0.990       .  S
O2437      H2450   0.990       .  S
N2461      C2465   1.371       .  A
N2461      C2462   1.371       .  A
C2462      C2463   1.364       .  A
C2463      C2464   1.349       .  A
C2463      H2466   1.086       .  S
C2464      C2465   1.381       .  A
C2464      H2467   1.057       .  S
C2465      C2643   1.513       .  S
N2468      C2472   1.371       .  A
N2468      C2469   1.368       .  A
C2469      C2470   1.384       .  A
C2470      C2471   1.348       .  A
C2470      H2473   1.077       .  S
C2471      C2472   1.370       .  A
C2471      H2474   1.085       .  S
C2472      C2710   1.493       .  S
Zr2475     O2477   2.375       .  S
Zr2475     O2478   2.524       .  S
Zr2475     O2481   2.588       .  S
Zr2475     O2483   2.378       .  S
Zr2475     O2484   2.373       .  S
O2476      H2540   0.990       .  S
O2477      C2497   1.271       .  A
O2478      C2499   1.294       .  A
O2479     Zr2489   2.381       .  S
O2479      C2498   1.263       .  A
O2480     Zr2488   2.340       .  S
O2481      C2498   1.324       .  A
O2482     Zr2490   2.567       .  S
O2482      C2497   1.318       .  A
O2483     Zr2490   2.310       .  S
O2484     Zr2489   2.381       .  S
O2484     Zr2490   2.334       .  S
O2484      H2519   0.954       .  S
O2485     Zr2488   2.434       .  S
O2485     Zr2505   2.424       .  S
O2485      H2522   0.966       .  S
O2486     Zr2505   2.443       .  S
Zr2487     O2506   2.393       .  S
Zr2487     O2514   2.469       .  S
Zr2487     O2502   2.570       .  S
Zr2487     O2495   2.331       .  S
Zr2487     O2496   2.412       .  S
Zr2488     O2501   2.369       .  S
Zr2488     O2495   2.356       .  S
Zr2488     O2507   2.450       .  S
Zr2489     O2515   2.347       .  S
Zr2489     O2493   2.419       .  S
Zr2489     O2513   2.451       .  S
Zr2490     O2493   2.437       .  S
Zr2490     O2494   2.448       .  S
Zr2490     O2516   2.432       .  S
Zr2490     O2517   2.435       .  S
Zr2490     O2492   2.437       .  S
O2491      H2528   0.990       .  S
O2492      H2523   0.990       .  S
O2492      H2537   0.990       .  S
O2494      H2520   0.966       .  S
O2495     Zr2505   2.323       .  S
O2496     Zr2505   2.342       .  S
O2496      H2521   0.965       .  S
C2497      C2608   1.495       .  S
C2499      C2564   1.485       .  S
O2500      H2536   0.988       .  S
O2501      C2503   1.264       .  A
O2502      C2503   1.319       .  A
O2504     Zr2505   2.434       .  S
O2504      H2533   0.990       .  S
Zr2505     O2510   2.535       .  S
Zr2505     O2508   2.435       .  S
Zr2505     O2509   2.438       .  S
O2506      C2511   1.275       .  A
O2507      H2524   0.989       .  S
O2507      H2539   0.988       .  S
O2508      H2525   0.990       .  S
O2509      H2529   0.991       .  S
O2509      H2538   0.989       .  S
O2510      C2511   1.310       .  A
O2512      H2531   0.990       .  S
O2512      H2535   0.990       .  S
O2513      H2527   0.991       .  S
O2513      H2534   0.990       .  S
O2515      C2518   1.256       .  A
O2516      H2526   0.990       .  S
O2517      H2530   0.990       .  S
Zr2541     O2543   2.457       .  S
Zr2541     O2544   2.474       .  S
Zr2541     O2547   2.461   1_655  S
Zr2541     O2549   2.369       .  S
Zr2541     O2550   2.396       .  S
O2542      H2598   0.990       .  S
O2542      H2606   0.990       .  S
O2543      C2563   1.286       .  A
O2544      C2565   1.297       .  A
O2545     Zr2555   2.347       .  S
O2545      C2564   1.254       .  A
O2546     Zr2554   2.333       .  S
O2546      C2565   1.258       .  A
O2548     Zr2556   2.545       .  S
O2548      C2563   1.312       .  A
O2549     Zr2554   2.380       .  S
O2549     Zr2556   2.334       .  S
O2550     Zr2556   2.322       .  S
O2550      H2585   0.961       .  S
O2551     Zr2571   2.446       .  S
O2551      H2588   0.965       .  S
O2552     Zr2555   2.398       .  S
O2552     Zr2571   2.430       .  S
Zr2553     O2572   2.440       .  S
Zr2553     O2580   2.473       .  S
Zr2553     O2568   2.489       .  S
Zr2553     O2561   2.352       .  S
Zr2553     O2562   2.374       .  S
Zr2554     O2567   2.350       .  S
Zr2554     O2560   2.414       .  S
Zr2554     O2566   2.439       .  S
Zr2555     O2581   2.318       .  S
Zr2555     O2562   2.389       .  S
Zr2555     O2557   2.432       .  S
Zr2556     O2559   2.434   1_655  S
Zr2556     O2560   2.427       .  S
Zr2556     O2582   2.438       .  S
Zr2556     O2583   2.434       .  S
Zr2556     O2558   2.428       .  S
O2557      H2594   0.987       .  S
O2558      H2589   0.989       .  S
O2558      H2603   0.990       .  S
O2560      H2586   0.966       .  S
O2561     Zr2571   2.295       .  S
O2562     Zr2571   2.339       .  S
O2562      H2587   0.964       .  S
O2566      H2602   0.991       .  S
O2568      C2569   1.287       .  A
O2570     Zr2571   2.436       .  S
O2570      H2599   0.990       .  S
Zr2571     O2576   2.569       .  S
Zr2571     O2574   2.436       .  S
Zr2571     O2575   2.433       .  S
O2572      C2577   1.285       .  A
O2573      H2590   0.990       .  S
O2573      H2605   0.989       .  S
O2574      H2591   0.990       .  S
O2575      H2595   0.990       .  S
O2575      H2604   0.990       .  S
O2576      C2577   1.318       .  A
C2577      C2615   1.539       .  S
O2578      H2597   0.990   1_655  S
O2578      H2601   0.990   1_655  S
O2579      H2600   0.990       .  S
O2580      C2584   1.302       .  A
O2581      C2584   1.256       .  A
O2582      H2592   0.990       .  S
O2583      H2596   0.990       .  S
N2607      C2611   1.385       .  A
N2607      C2608   1.388       .  A
C2608      C2609   1.356       .  A
C2609      C2610   1.310       .  A
C2609      H2612   1.073       .  S
C2610      C2611   1.375       .  A
C2610      H2613   1.072       .  S
C2611      C2649   1.518       .  S
N2614      C2618   1.376       .  A
N2614      C2615   1.385       .  A
C2615      C2616   1.383       .  A
C2616      C2617   1.365       .  A
C2616      H2619   1.083       .  S
C2617      C2618   1.382       .  A
C2617      H2620   1.084       .  S
C2618      C2723   1.525       .  S
Zr2621     O2623   2.427       .  S
Zr2621     O2624   2.466       .  S
Zr2621     O2627   2.570       .  S
Zr2621     O2629   2.381       .  S
Zr2621     O2630   2.334       .  S
Zr2621     O2631   2.440       .  S
Zr2621     O2632   2.405       .  S
Zr2621     O2622   2.434       .  S
O2622      H2678   0.990       .  S
O2622      H2686   0.990       .  S
O2623      C2643   1.283       .  A
O2624      C2645   1.291       .  A
O2625     Zr2635   2.402       .  S
O2625      C2644   1.272       .  A
O2626     Zr2634   2.415       .  S
O2626      C2645   1.271       .  A
O2627      C2644   1.321       .  A
O2628     Zr2636   2.546       .  S
O2628      C2643   1.308       .  A
O2629     Zr2634   2.383       .  S
O2629     Zr2636   2.309       .  S
O2630     Zr2635   2.372       .  S
O2630     Zr2636   2.330       .  S
O2630      H2665   0.951       .  S
O2631     Zr2634   2.434       .  S
O2631     Zr2651   2.412       .  S
O2631      H2668   0.965       .  S
O2632     Zr2635   2.392       .  S
O2632     Zr2651   2.456       .  S
Zr2633     O2652   2.384       .  S
Zr2633     O2660   2.451       .  S
Zr2633     O2648   2.451       .  S
Zr2633     O2639   2.390       .  S
Zr2633     O2640   2.399       .  S
Zr2633     O2641   2.327       .  S
Zr2633     O2642   2.351       .  S
Zr2633     O2658   2.431       .  S
Zr2634     O2647   2.469       .  S
Zr2634     O2640   2.400       .  S
Zr2634     O2641   2.356       .  S
Zr2634     O2653   2.414       .  S
Zr2634     O2646   2.439       .  S
Zr2635     O2661   2.355       .  S
Zr2635     O2639   2.408       .  S
Zr2635     O2642   2.397       .  S
Zr2635     O2637   2.437       .  S
Zr2635     O2659   2.441       .  S
Zr2636     O2639   2.432       .  S
Zr2636     O2640   2.423       .  S
Zr2636     O2662   2.438       .  S
Zr2636     O2663   2.431       .  S
Zr2636     O2638   2.433       .  S
O2637      H2674   0.990       .  S
O2638      H2669   0.990       .  S
O2638      H2683   0.989       .  S
O2640      H2666   0.966       .  S
O2641     Zr2651   2.324       .  S
O2642     Zr2651   2.288       .  S
O2642      H2667   0.962       .  S
C2645      C2711   1.433       .  S
O2646      H2682   0.989       .  S
O2647      C2649   1.279       .  A
O2648      C2649   1.293       .  A
O2650     Zr2651   2.438       .  S
O2650      H2679   0.989       .  S
Zr2651     O2656   2.574       .  S
Zr2651     O2654   2.429       .  S
Zr2651     O2655   2.442       .  S
O2652      C2657   1.275       .  A
O2653      H2670   0.988       .  S
O2653      H2685   0.982       .  S
O2654      H2671   0.990       .  S
O2655      H2675   0.990       .  S
O2655      H2684   0.990       .  S
O2656      C2657   1.316       .  A
O2658      H2677   0.990       .  S
O2658      H2681   0.990       .  S
O2659      H2673   0.990       .  S
O2659      H2680   0.989       .  S
O2660      C2664   1.290       .  A
O2661      C2664   1.266       .  A
O2662      H2672   0.990       .  S
O2663      H2676   0.990       .  S
Zr2687     O2689   2.426       .  S
Zr2687     O2690   2.467       .  S
Zr2687     O2693   2.519       .  S
Zr2687     O2695   2.366       .  S
Zr2687     O2696   2.351       .  S
Zr2687     O2697   2.431       .  S
Zr2687     O2698   2.396       .  S
Zr2687     O2688   2.421       .  S
O2688      H2744   0.990       .  S
O2688      H2752   0.990       .  S
O2689      C2709   1.281       .  A
O2690      C2711   1.289       .  A
O2691     Zr2701   2.370       .  S
O2691      C2710   1.269       .  A
O2692     Zr2700   2.422       .  S
O2692      C2711   1.270       .  A
O2693      C2710   1.312       .  A
O2694     Zr2702   2.524       .  S
O2694      C2709   1.307       .  A
O2695     Zr2700   2.353       .  S
O2695     Zr2702   2.299       .  S
O2696     Zr2701   2.368       .  S
O2696     Zr2702   2.343       .  S
O2696      H2731   0.961       .  S
O2697     Zr2700   2.419       .  S
O2697     Zr2717   2.419       .  S
O2697      H2734   0.964       .  S
O2698     Zr2701   2.383       .  S
O2698     Zr2717   2.448       .  S
Zr2699     O2718   2.448       .  S
Zr2699     O2726   2.442       .  S
Zr2699     O2714   2.484       .  S
Zr2699     O2705   2.414       .  S
Zr2699     O2706   2.400       .  S
Zr2699     O2707   2.343       .  S
Zr2699     O2708   2.369       .  S
Zr2699     O2724   2.426       .  S
Zr2700     O2713   2.393       .  S
Zr2700     O2706   2.386       .  S
Zr2700     O2707   2.374       .  S
Zr2700     O2719   2.433       .  S
Zr2700     O2712   2.451       .  S
Zr2701     O2727   2.320       .  S
Zr2701     O2705   2.393       .  S
Zr2701     O2708   2.367       .  S
Zr2701     O2703   2.436       .  S
Zr2701     O2725   2.443       .  S
Zr2702     O2705   2.415       .  S
Zr2702     O2706   2.425       .  S
Zr2702     O2728   2.429       .  S
Zr2702     O2729   2.435       .  S
Zr2702     O2704   2.437       .  S
O2703      H2740   0.990       .  S
O2704      H2735   0.990       .  S
O2704      H2749   0.990       .  S
O2706      H2732   0.966       .  S
O2707     Zr2717   2.343       .  S
O2708     Zr2717   2.301       .  S
O2708      H2733   0.956       .  S
O2712      H2748   0.989       .  S
O2713      C2715   1.275       .  A
O2714      C2715   1.305       .  A
O2716     Zr2717   2.436       .  S
O2716      H2745   0.990       .  S
Zr2717     O2722   2.558       .  S
Zr2717     O2720   2.437       .  S
Zr2717     O2721   2.435       .  S
O2718      C2723   1.286       .  A
O2719      H2736   0.987       .  S
O2719      H2751   0.990       .  S
O2720      H2737   0.990       .  S
O2721      H2741   0.990       .  S
O2721      H2750   0.990       .  S
O2722      C2723   1.313       .  A
O2724      H2743   0.990       .  S
O2724      H2747   0.989       .  S
O2725      H2739   0.989       .  S
O2725      H2746   0.990       .  S
O2726      C2730   1.286       .  A
O2727      C2730   1.263       .  A
O2728      H2738   0.990       .  S
O2729      H2742   0.990       .  S
