geometry optimzed in LAMMPS
_audit_creation_date              2020-11-30 
_audit_creation_method            'lammps2cif' 
_symmetry_space_group_name_H-M    'P1' 
_symmetry_Int_Tables_number       1 
_symmetry_cell_setting            triclinic 
loop_ 
_symmetry_equiv_pos_as_xyz 
  x,y,z 
_cell_length_a                    31.16053061 
_cell_length_b                    31.657038216350475 
_cell_length_c                    35.451514332265205 
_cell_angle_alpha                 90.42645149195212 
_cell_angle_beta                  89.25052467891226 
_cell_angle_gamma                 90.53744479364828 
loop_ 
_atom_site_label 
_atom_site_type_symbol 
_atom_site_fract_x 
_atom_site_fract_y 
_atom_site_fract_z 
_atom_site_charge 
In1        In  0.25352745  0.99403643  0.50191852     1.36900
C2          C  0.19974038  0.92859622  0.00403311     0.77900
O3          O  0.30304073  0.96396270  0.03821507    -0.60500
O4          O  0.28311417  0.02607384  0.05183433    -0.51500
C5          C  0.30987987  0.00070032  0.44567524     0.70600
O6          O  0.29603957  0.96563857  0.45768478    -0.46300
C7          C  0.19627226  0.05526364  0.49887152     0.75300
O8          O  0.21269307  0.94505208  0.47365918    -0.58200
O9          O  0.21405010  0.04033435  0.96960392    -0.48300
O10         O  0.21506904  0.94524722  0.03324221    -0.54600
C11         C  0.30611941  0.99514509  0.06038441     0.85400
O12         O  0.29520578  0.03252202  0.46292152    -0.56500
O13         O  0.20762599  0.03826706  0.52910733    -0.59800
N14         N  0.50278962  0.99850018  0.19251956    -0.36300
N15         N  0.57122966  0.00126417  0.24760555    -0.56900
N16         N  0.50719550  0.00294288  0.30702884    -0.36300
N17         N  0.43862211  0.00417100  0.25190784    -0.56900
C18         C  0.53723063  0.00658346  0.17008090     0.27300
C19         C  0.46746696  0.00772463  0.17259233     0.27300
C20         C  0.54306796  0.01150244  0.32688565     0.27300
C21         C  0.47332731  0.01400855  0.32904187     0.27300
C22         C  0.59438698  0.99180746  0.21625734     0.35900
C23         C  0.59702410  0.99426235  0.27724062     0.35900
C24         C  0.41259424  0.99530140  0.22265521     0.35900
C25         C  0.41487374  0.99866872  0.28363540     0.35900
C26         C  0.52367487  0.02128023  0.13547807    -0.21600
C27         C  0.47958967  0.02218312  0.13713084    -0.21600
C28         C  0.53185418  0.02805236  0.36193308    -0.21600
C29         C  0.48781087  0.02969300  0.36326678    -0.21600
C30         C  0.63526857  0.97932526  0.22596175    -0.22600
C31         C  0.63692241  0.98083161  0.26467978    -0.22600
C32         C  0.37193017  0.98439787  0.23581646    -0.22600
C33         C  0.37334006  0.98665479  0.27455859    -0.22600
C34         C  0.58020928  0.99766573  0.17902982    -0.18000
C35         C  0.42467809  0.99968580  0.18433346    -0.18000
C36         C  0.42973331  0.00674026  0.32046762    -0.18000
C37         C  0.58541616  0.00177228  0.31531114    -0.18000
H38         H  0.54340484  0.02976077  0.11129983     0.14900
H39         H  0.45878059  0.03152684  0.11450411     0.14900
H40         H  0.55317527  0.03743925  0.38441764     0.14900
H41         H  0.46857561  0.04052453  0.38700689     0.14900
H42         H  0.66128456  0.97043708  0.20709335     0.13200
H43         H  0.66439025  0.97318235  0.28160585     0.13200
H44         H  0.34407573  0.97620680  0.21927387     0.13200
H45         H  0.34679385  0.98050142  0.29380105     0.13200
H46         H  0.50320407  0.98219653  0.21789165     0.26500
H47         H  0.50567464  0.98541164  0.28218810     0.26500
In48       In  0.75871490  0.99604397  0.49763847     1.36900
C49         C  0.81537321  0.06022519  0.99880219     0.77900
O50         O  0.71791426  0.02926486  0.04075840    -0.60500
O51         O  0.71767106  0.96240401  0.04105317    -0.51500
C52         C  0.70460604  0.99780423  0.43935140     0.70600
O53         O  0.70935570  0.96570860  0.45960421    -0.46300
C54         C  0.81407681  0.93219560  0.49831231     0.75300
O55         O  0.79233765  0.05049351  0.52698811    -0.58200
O56         O  0.80290687  0.95235914  0.02750870    -0.48300
O57         O  0.80906789  0.03718323  0.97020971    -0.54600
C58         C  0.70380498  0.99597681  0.05599219     0.85400
O59         O  0.72674984  0.02922905  0.44959811    -0.56500
O60         O  0.79653192  0.94457259  0.46862141    -0.59800
In61       In  0.01122797  0.24797209  0.49989378     1.36900
C62         C  0.07477436  0.19207248  0.99753833     0.77900
O63         O  0.04448991  0.28239877  0.04691759    -0.60500
O64         O  0.97784487  0.29183027  0.04053144    -0.51500
C65         C  0.01243966  0.30322185  0.44308071     0.70600
O66         O  0.04540880  0.29462641  0.46167986    -0.46300
C67         C  0.94554291  0.19268434  0.50124505     0.75300
O68         O  0.06258054  0.21124527  0.46863958    -0.58200
O69         O  0.95876706  0.21129390  0.03044020    -0.48300
O70         O  0.05525757  0.20261809  0.02742357    -0.54600
C71         C  0.01106990  0.30027489  0.05917092     0.85400
O72         O  0.97897620  0.28399057  0.45401732    -0.56500
O73         O  0.96569109  0.20286849  0.47155712    -0.59800
N74         N  0.00688687  0.49632756  0.19263237    -0.36300
N75         N  0.01009134  0.43289558  0.25172343    -0.56900
N76         N  0.00271118  0.49940875  0.30804475    -0.36300
N77         N  0.00619511  0.56336450  0.24908981    -0.56900
C78         C  0.01601524  0.46151839  0.17186026     0.27300
C79         C  0.01541606  0.53016610  0.17063410     0.27300
C80         C  0.01174991  0.46630235  0.33050370     0.27300
C81         C  0.00772320  0.53489598  0.32903533     0.27300
C82         C  0.00557299  0.40689807  0.22159632     0.35900
C83         C  0.00549055  0.40852614  0.28270849     0.35900
C84         C  0.00100672  0.58704737  0.21795599     0.35900
C85         C  0.99710932  0.58865055  0.27893140     0.35900
C86         C  0.02994735  0.47333603  0.13609972    -0.21600
C87         C  0.02960943  0.51666788  0.13532883    -0.20800
C88         C  0.02180940  0.48094843  0.36628259    -0.21600
C89         C  0.01947063  0.52416440  0.36532084    -0.21600
C90         C  0.99873094  0.36575586  0.23348226    -0.22600
C91         C  0.99889017  0.36675895  0.27221499    -0.22600
C92         C  0.98938622  0.62777829  0.22804843    -0.22600
C93         C  0.98680263  0.62876424  0.26674781    -0.22600
C94         C  0.01004150  0.41928306  0.18352347    -0.18000
C95         C  0.00805539  0.57276548  0.18060971    -0.18000
C96         C  0.00010331  0.57666529  0.31708523    -0.18000
C97         C  0.00908475  0.42309155  0.32031848    -0.18000
H98         H  0.03932352  0.45285637  0.11289360     0.14900
H99         H  0.03851688  0.53599357  0.11135531     0.14900
H100        H  0.02981440  0.46244439  0.39070374     0.14900
H101        H  0.02549518  0.54526957  0.38885952     0.14900
H102        H  0.99462337  0.33783181  0.21606321     0.13200
H103        H  0.99478383  0.33979800  0.29054565     0.13200
H104        H  0.98319263  0.65394949  0.20947712     0.13200
H105        H  0.97828421  0.65587961  0.28395254     0.13200
H106        H  0.99096394  0.49673081  0.21847143     0.26500
H107        H  0.98934477  0.49781291  0.28147259     0.26500
In108      In  0.00467149  0.74447197  0.50157707     1.36900
C109        C  0.94198321  0.80107377  0.00278024     0.77900
O110        O  0.97239521  0.70203822  0.04332111    -0.60500
O111        O  0.04033386  0.70094470  0.03895132    -0.51500
C112        C  0.00224010  0.69411931  0.44175012     0.70600
O113        O  0.96925196  0.70276907  0.46119058    -0.46300
C114        C  0.07057714  0.79751557  0.50375727     0.75300
O115        O  0.95858722  0.78672859  0.47282121    -0.58200
O116        O  0.05571037  0.78253512  0.97359390    -0.48300
O117        O  0.95744294  0.78615378  0.03247030    -0.54600
C118        C  0.00699237  0.68729059  0.05537598     0.85400
O119        O  0.03642234  0.71096443  0.45335663    -0.56500
O120        O  0.05168163  0.78489634  0.53332252    -0.59800
C121        C  0.99816099  0.60993528  0.34665477    -0.05100
C122        C  0.03306468  0.63768954  0.35087078    -0.32600
C123        C  0.03486618  0.66541667  0.38167290     0.36700
C124        C  0.00089167  0.66617246  0.40837506    -0.05500
C125        C  0.96537829  0.63919749  0.40341687    -0.32500
C126        C  0.96406112  0.61088254  0.37302692     0.36600
H127        H  0.05963426  0.63679458  0.33086002     0.16900
O128        O  0.06982608  0.69174339  0.38520445    -0.60000
H129        H  0.93909207  0.63916459  0.42373159     0.17000
O130        O  0.92967519  0.58382080  0.36949540    -0.60100
H131        H  0.93500940  0.56060064  0.38743829     0.44000
H132        H  0.09085133  0.67551848  0.39987105     0.43900
C133        C  0.00735758  0.60374437  0.14963188    -0.05100
C134        C  0.04506327  0.62539921  0.13934007    -0.32600
C135        C  0.04570736  0.65216121  0.10814752     0.36700
C136        C  0.00814056  0.65750901  0.08696724    -0.05500
C137        C  0.97044143  0.63584090  0.09752854    -0.32500
C138        C  0.96996031  0.60895104  0.12854826     0.36600
H139        H  0.07407285  0.62117330  0.15534827     0.16900
O140        O  0.08301084  0.67326919  0.09898509    -0.60000
H141        H  0.94123391  0.63972146  0.08171101     0.17000
O142        O  0.93264623  0.58838428  0.13855028    -0.60100
H143        H  0.93165123  0.56279083  0.12223990     0.44000
H144        H  0.08055862  0.70124976  0.11153596     0.43900
C145        C  0.01010198  0.39141181  0.35108272    -0.05100
C146        C  0.04932828  0.37473601  0.36261415    -0.32600
C147        C  0.05072847  0.34569265  0.39229977     0.36700
C148        C  0.01247822  0.33336283  0.41120633    -0.05500
C149        C  0.97330887  0.35001372  0.39925859    -0.32500
C150        C  0.97197301  0.37875166  0.36948403     0.36600
H151        H  0.07888619  0.38439962  0.34859138     0.16900
O152        O  0.08956818  0.32955001  0.40244651    -0.60000
H153        H  0.94354815  0.34105221  0.41330218     0.17000
O154        O  0.93329938  0.39490333  0.35889397    -0.60100
H155        H  0.92176765  0.37435949  0.34031323     0.44000
H156        H  0.09306446  0.30355478  0.38692370     0.43900
C157        C  0.00929882  0.38629645  0.15366377    -0.05100
C158        C  0.04633232  0.36312259  0.14548118    -0.32600
C159        C  0.04732286  0.33472088  0.11503376     0.36700
C160        C  0.01069436  0.32898287  0.09239949    -0.05500
C161        C  0.97330332  0.35166909  0.10139944    -0.32500
C162        C  0.97255010  0.38028669  0.13164539     0.36600
H163        H  0.07482163  0.36783399  0.16225861     0.16900
O164        O  0.08419593  0.31259736  0.10790525    -0.60000
H165        H  0.94479149  0.34788751  0.08449644     0.17000
O166        O  0.93628469  0.40343963  0.13866879    -0.60100
H167        H  0.92180715  0.38941846  0.16035738     0.44000
H168        H  0.10136102  0.33059788  0.09050467     0.43900
C169        C  0.84540876  0.89734947  0.49920327    -0.05100
C170        C  0.86320728  0.88587899  0.03382377    -0.32600
C171        C  0.89425900  0.85432833  0.03567000     0.36700
C172        C  0.90768750  0.83308901  0.00253718    -0.05500
C173        C  0.88921465  0.84393748  0.46804478    -0.32500
C174        C  0.85861021  0.87585985  0.46611651     0.36600
H175        H  0.85367539  0.90200668  0.05961778     0.16900
O176        O  0.91178155  0.84523549  0.06991105    -0.60000
H177        H  0.89903201  0.82807748  0.44219714     0.17000
O178        O  0.84309962  0.88669427  0.43153367    -0.60100
H179        H  0.81763125  0.86804132  0.42768444     0.44000
H180        H  0.93552964  0.86604433  0.07305509     0.43900
C181        C  0.91024509  0.16077990  0.50135557    -0.05100
C182        C  0.89973997  0.14060878  0.46729028    -0.32600
C183        C  0.86905304  0.10812317  0.46608412     0.36700
C184        C  0.84732385  0.09540904  0.99930253    -0.05500
C185        C  0.85680799  0.11640528  0.03335306    -0.32500
C186        C  0.88798117  0.14875625  0.03460764     0.36600
H187        H  0.91599854  0.14946696  0.44129682     0.16900
O188        O  0.86041438  0.08927554  0.43202778    -0.60000
H189        H  0.84045481  0.10735001  0.05925538     0.17000
O190        O  0.89616842  0.16837958  0.06843014    -0.60100
H191        H  0.91652100  0.14977451  0.08135219     0.44000
H192        H  0.88414834  0.06922144  0.42752975     0.43900
C193        C  0.61856609  0.99903549  0.34500937    -0.05100
C194        C  0.64909076  0.03143699  0.34931918    -0.32600
C195        C  0.67752282  0.03128348  0.37967429     0.36700
C196        C  0.67570905  0.99830467  0.40633228    -0.05500
C197        C  0.64582492  0.96527918  0.40117392    -0.32500
C198        C  0.61752174  0.96548056  0.37080862     0.36600
H199        H  0.65018530  0.05739461  0.32957144     0.16900
O200        O  0.70723076  0.06330930  0.38269741    -0.60000
H201        H  0.64387620  0.93950756  0.42107511     0.17000
O202        O  0.58797014  0.93338158  0.36717674    -0.60100
H203        H  0.60033527  0.91401884  0.34777322     0.44000
H204        H  0.69307287  0.08525832  0.39846564     0.43900
C205        C  0.61242715  0.99657847  0.14797176    -0.05100
C206        C  0.63315042  0.03406092  0.13726267    -0.32600
C207        C  0.66311171  0.03425440  0.10756877     0.36700
C208        C  0.67319303  0.99632576  0.08833795    -0.05500
C209        C  0.65285767  0.95857016  0.09972957    -0.32500
C210        C  0.62239085  0.95861431  0.12916006     0.36600
H211        H  0.62564587  0.06337802  0.15176830     0.16900
O212        O  0.68273437  0.07166888  0.09797483    -0.60000
H213        H  0.65998791  0.92907457  0.08538503     0.17000
O214        O  0.60173310  0.92170730  0.13877115    -0.60100
H215        H  0.62099868  0.90767187  0.15671148     0.44000
H216        H  0.66247241  0.08569312  0.08083252     0.43900
C217        C  0.10621150  0.82841082  0.50415901    -0.05100
C218        C  0.11985279  0.84589901  0.03854015    -0.32600
C219        C  0.15099432  0.87800666  0.03918682     0.36700
C220        C  0.16871883  0.89322075  0.00500946    -0.05500
C221        C  0.15592028  0.87483029  0.47084472    -0.32500
C222        C  0.12529374  0.84251753  0.47020176     0.36600
H223        H  0.10580823  0.83527115  0.06497904     0.16900
O224        O  0.16263984  0.89520115  0.07322087    -0.60000
H225        H  0.16946888  0.88571434  0.44430800     0.17000
O226        O  0.11441053  0.82496112  0.43610551    -0.60100
H227        H  0.09212739  0.84367787  0.42589435     0.44000
H228        H  0.18506967  0.87619977  0.08293165     0.43900
C229        C  0.16535293  0.09034119  0.49814839    -0.05100
C230        C  0.15552056  0.10994259  0.46390208    -0.32600
C231        C  0.12667118  0.14367088  0.46305144     0.36700
C232        C  0.10778053  0.15875310  0.99690068    -0.05500
C233        C  0.11826867  0.13948363  0.03099842    -0.32500
C234        C  0.14595590  0.10520354  0.03177894     0.36600
H235        H  0.16991947  0.09892145  0.43767763     0.16900
O236        O  0.11702222  0.16130105  0.42900794    -0.60000
H237        H  0.10398440  0.15023922  0.05733938     0.17000
O238        O  0.15340847  0.08631707  0.06573720    -0.60100
H239        H  0.12986976  0.06525133  0.06887255     0.44000
H240        H  0.09041411  0.14673577  0.42084169     0.43900
C241        C  0.39860994  0.00575334  0.35236409    -0.05100
C242        C  0.37273749  0.04076454  0.36042654    -0.32600
C243        C  0.34421120  0.04013380  0.39135416     0.36700
C244        C  0.34085863  0.00373553  0.41400368    -0.05500
C245        C  0.36726251  0.96909834  0.40596244    -0.32500
C246        C  0.39621913  0.97011137  0.37563497     0.36600
H247        H  0.37495656  0.06861356  0.34289657     0.16900
O248        O  0.31883940  0.07455748  0.39839664    -0.60000
H249        H  0.36571958  0.94119141  0.42345536     0.17000
O250        O  0.42259848  0.93633639  0.36915285    -0.60100
H251        H  0.40599662  0.91694135  0.35257410     0.44000
H252        H  0.33708060  0.09447686  0.41294549     0.43900
C253        C  0.39153251  0.99627528  0.15466226    -0.05100
C254        C  0.35970941  0.02707408  0.15213222    -0.32600
C255        C  0.33114431  0.02669511  0.12196029     0.36700
C256        C  0.33441731  0.99531573  0.09356215    -0.05500
C257        C  0.36551803  0.96381053  0.09684197    -0.32500
C258        C  0.39393353  0.96416260  0.12700471     0.36600
H259        H  0.35771855  0.05204684  0.17313375     0.16900
O260        O  0.30068907  0.05757110  0.12024821    -0.60000
H261        H  0.36858192  0.93937264  0.07544294     0.17000
O262        O  0.42534123  0.93414040  0.12822522    -0.60100
H263        H  0.41604218  0.91433794  0.14833580     0.44000
H264        H  0.27502086  0.04558491  0.13339012     0.43900
In265      In  0.25352904  0.99403640  0.00191777     1.36900
C266        C  0.19973652  0.92859839  0.50402770     0.77900
O267        O  0.30304834  0.96396475  0.53820896    -0.60500
O268        O  0.28310033  0.02606421  0.55184574    -0.51500
C269        C  0.30988149  0.00069960  0.94567377     0.70600
O270        O  0.29605214  0.96563807  0.95769268    -0.46300
C271        C  0.19627283  0.05526150  0.99887011     0.75300
O272        O  0.21270306  0.94504289  0.97366350    -0.58200
O273        O  0.21406782  0.04035309  0.46960720    -0.48300
O274        O  0.21507413  0.94523986  0.53323720    -0.54600
C275        C  0.30611606  0.99514006  0.56038744     0.85400
O276        O  0.29519584  0.03252221  0.96291061    -0.56500
O277        O  0.20764426  0.03828136  0.02910808    -0.59800
N278        N  0.50278934  0.99849984  0.69252152    -0.36300
N279        N  0.57123085  0.00125690  0.74760811    -0.56900
N280        N  0.50719970  0.00293339  0.80703112    -0.36300
N281        N  0.43862496  0.00416571  0.75190942    -0.56900
C282        C  0.53723028  0.00658272  0.67008290     0.27300
C283        C  0.46746660  0.00772333  0.67259395     0.27300
C284        C  0.54307218  0.01149681  0.82688682     0.27300
C285        C  0.47333187  0.01400300  0.82904268     0.27300
C286        C  0.59438686  0.99180129  0.71625889     0.35900
C287        C  0.59702658  0.99425464  0.77724241     0.35900
C288        C  0.41259532  0.99529883  0.72265727     0.35900
C289        C  0.41487747  0.99866328  0.78363735     0.35900
C290        C  0.52367443  0.02127944  0.63547989    -0.21600
C291        C  0.47958910  0.02218184  0.63713243    -0.21600
C292        C  0.53185867  0.02805321  0.86193179    -0.21600
C293        C  0.48781536  0.02969359  0.86326539    -0.21600
C294        C  0.63526885  0.97931887  0.72596214    -0.22600
C295        C  0.63692432  0.98082414  0.76468023    -0.22600
C296        C  0.37193115  0.98439722  0.73581945    -0.22600
C297        C  0.37334270  0.98665241  0.77456145    -0.22600
C298        C  0.58020851  0.99766244  0.67903161    -0.18000
C299        C  0.42467811  0.99968295  0.68433514    -0.18000
C300        C  0.42973815  0.00673378  0.82046915    -0.18000
C301        C  0.58542019  0.00176549  0.81531318    -0.18000
H302        H  0.54340426  0.02975923  0.61130134     0.14900
H303        H  0.45877987  0.03152458  0.61450543     0.14900
H304        H  0.55318001  0.03744512  0.88441457     0.14900
H305        H  0.46858000  0.04052969  0.88700375     0.14900
H306        H  0.66128453  0.97043228  0.70709282     0.13200
H307        H  0.66439308  0.97317530  0.78160533     0.13200
H308        H  0.34407543  0.97620869  0.71927766     0.13200
H309        H  0.34679665  0.98050044  0.79380445     0.13200
H310        H  0.50320423  0.98219630  0.71789336     0.26500
H311        H  0.50567820  0.98539763  0.78219280     0.26500
In312      In  0.75872015  0.99604119  0.99764008     1.36900
C313        C  0.81536621  0.06022978  0.49880173     0.77900
O314        O  0.71791652  0.02926524  0.54076354    -0.60500
O315        O  0.71766124  0.96240431  0.54104723    -0.51500
C316        C  0.70461406  0.99779848  0.93935168     0.70600
O317        O  0.70935730  0.96570600  0.95960985    -0.46300
C318        C  0.81408067  0.93219279  0.99831387     0.75300
O319        O  0.79234596  0.05048935  0.02698960    -0.58200
O320        O  0.80289992  0.95235941  0.52750766    -0.48300
O321        O  0.80906368  0.03718697  0.47020915    -0.54600
C322        C  0.70380167  0.99597656  0.55599219     0.85400
O323        O  0.72676345  0.02922154  0.94959344    -0.56500
O324        O  0.79653243  0.94456660  0.96862349    -0.59800
In325      In  0.01123154  0.24797222  0.99989233     1.36900
C326        C  0.07477117  0.19207267  0.49754132     0.77900
O327        O  0.04448657  0.28238589  0.54692544    -0.60500
O328        O  0.97784784  0.29184409  0.54052436    -0.51500
C329        C  0.01244671  0.30322432  0.94308108     0.70600
O330        O  0.04541530  0.29462532  0.96167945    -0.46300
C331        C  0.94554831  0.19268175  0.00124178     0.75300
O332        O  0.06257311  0.21123460  0.96863467    -0.58200
O333        O  0.95875734  0.21130256  0.53044196    -0.48300
O334        O  0.05524383  0.20260784  0.52742424    -0.54600
C335        C  0.01107076  0.30027573  0.55917093     0.85400
O336        O  0.97898149  0.28399634  0.95401825    -0.56500
O337        O  0.96569124  0.20287319  0.97155319    -0.59800
N338        N  0.00689206  0.49632655  0.69263120    -0.36300
N339        N  0.01010867  0.43289536  0.75172316    -0.56900
N340        N  0.00272727  0.49940898  0.80804313    -0.36300
N341        N  0.00619410  0.56336306  0.74908758    -0.56900
C342        C  0.01602150  0.46151798  0.67185872     0.27300
C343        C  0.01541369  0.53016545  0.67063112     0.27300
C344        C  0.01177129  0.46630393  0.83050196     0.27300
C345        C  0.00773883  0.53489705  0.82903277     0.27300
C346        C  0.00558689  0.40689778  0.72159654     0.35900
C347        C  0.00550688  0.40852681  0.78270871     0.35900
C348        C  0.00100094  0.58704498  0.71795389     0.35900
C349        C  0.99710850  0.58864860  0.77892954     0.35900
C350        C  0.02994674  0.47333622  0.63609628    -0.21600
C351        C  0.02960322  0.51666803  0.63532443    -0.20800
C352        C  0.02183559  0.48095159  0.86627924    -0.21600
C353        C  0.01949338  0.52416744  0.86531689    -0.21600
C354        C  0.99874251  0.36575612  0.73348332    -0.22600
C355        C  0.99890289  0.36675987  0.77221608    -0.22600
C356        C  0.98937722  0.62777480  0.72804669    -0.22600
C357        C  0.98679627  0.62876090  0.76674612    -0.22600
C358        C  0.01005187  0.41928260  0.68352327    -0.18000
C359        C  0.00804982  0.57276402  0.68060740    -0.18000
C360        C  0.00010948  0.57666470  0.81708326    -0.18000
C361        C  0.00910295  0.42309307  0.82031825    -0.18000
H362        H  0.03932106  0.45285698  0.61288926     0.14900
H363        H  0.03850390  0.53599403  0.61134925     0.14900
H364        H  0.02984468  0.46244862  0.89069997     0.14900
H365        H  0.02551890  0.54527372  0.88885462     0.14900
H366        H  0.99463151  0.33783214  0.71606481     0.13200
H367        H  0.99479458  0.33979963  0.79054732     0.13200
H368        H  0.98318043  0.65394538  0.70947557     0.13200
H369        H  0.97827710  0.65587591  0.78395099     0.13200
H370        H  0.99097322  0.49672832  0.71847147     0.26500
H371        H  0.98935565  0.49781107  0.78147374     0.26500
In372      In  0.00467480  0.74446973  0.00157540     1.36900
C373        C  0.94197796  0.80107449  0.50277978     0.77900
O374        O  0.97239134  0.70204572  0.54332558    -0.60500
O375        O  0.04032996  0.70094813  0.53895401    -0.51500
C376        C  0.00224218  0.69412147  0.94174609     0.70600
O377        O  0.96925531  0.70276606  0.96119023    -0.46300
C378        C  0.07058074  0.79751329  0.00375683     0.75300
O379        O  0.95858185  0.78671795  0.97282105    -0.58200
O380        O  0.05570799  0.78253393  0.47359537    -0.48300
O381        O  0.95742887  0.78614623  0.53247013    -0.54600
C382        C  0.00698806  0.68729654  0.55537979     0.85400
O383        O  0.03642419  0.71096982  0.95334997    -0.56500
O384        O  0.05168579  0.78489128  0.03332135    -0.59800
C385        C  0.99816441  0.60993469  0.84665269    -0.05100
C386        C  0.03306069  0.63769941  0.85086138    -0.32600
C387        C  0.03486127  0.66542826  0.88166228     0.36700
C388        C  0.00089275  0.66617544  0.90837052    -0.05500
C389        C  0.96538579  0.63919048  0.90341932    -0.32500
C390        C  0.96407040  0.61087303  0.87303104     0.36600
H391        H  0.05962597  0.63681123  0.83084592     0.16900
O392        O  0.06981475  0.69176447  0.88518701    -0.60000
H393        H  0.93910433  0.63915082  0.92373885     0.17000
O394        O  0.92969274  0.58379950  0.86950754    -0.60100
H395        H  0.93503248  0.56058962  0.88745933     0.44000
H396        H  0.09084940  0.67554439  0.89984747     0.43900
C397        C  0.00735219  0.60374409  0.64963072    -0.05100
C398        C  0.04505899  0.62539679  0.63933841    -0.32600
C399        C  0.04570296  0.65216208  0.60814825     0.36700
C400        C  0.00813519  0.65751461  0.58697052    -0.05500
C401        C  0.97043462  0.63584943  0.59753283    -0.32500
C402        C  0.96995352  0.60895635  0.62855033     0.36600
H403        H  0.07406929  0.62116725  0.65534479     0.16900
O404        O  0.08300691  0.67326958  0.59898630    -0.60000
H405        H  0.94122608  0.63973444  0.58171766     0.17000
O406        O  0.93263835  0.58839221  0.63855363    -0.60100
H407        H  0.93163135  0.56280822  0.62223192     0.44000
H408        H  0.08056088  0.70124498  0.61154731     0.43900
C409        C  0.01011715  0.39141467  0.85108342    -0.05100
C410        C  0.04934152  0.37473351  0.86261313    -0.32600
C411        C  0.05073906  0.34568966  0.89229848     0.36700
C412        C  0.01248808  0.33336551  0.91120690    -0.05500
C413        C  0.97332054  0.35002221  0.89926108    -0.32500
C414        C  0.97198726  0.37876006  0.86948639     0.36600
H415        H  0.07889995  0.38439265  0.84858876     0.16900
O416        O  0.08957668  0.32954025  0.90244273    -0.60000
H417        H  0.94355932  0.34106503  0.91330607     0.17000
O418        O  0.93331529  0.39491647  0.85889749    -0.60100
H419        H  0.92178610  0.37438016  0.84030879     0.44000
H420        H  0.09308525  0.30356558  0.88689437     0.43900
C421        C  0.00930607  0.38629620  0.65366385    -0.05100
C422        C  0.04633651  0.36311694  0.64548328    -0.32600
C423        C  0.04732538  0.33471671  0.61503488     0.36700
C424        C  0.01069755  0.32898415  0.59239890    -0.05500
C425        C  0.97330975  0.35167660  0.60139625    -0.32500
C426        C  0.97255884  0.38029422  0.63164202     0.36600
H427        H  0.07482527  0.36782394  0.66226233     0.16900
O428        O  0.08419692  0.31259084  0.60790585    -0.60000
H429        H  0.94479900  0.34790032  0.58449103     0.17000
O430        O  0.93629838  0.40345633  0.63866056    -0.60100
H431        H  0.92181549  0.38944128  0.66034993     0.44000
H432        H  0.10136337  0.33059082  0.59050638     0.43900
C433        C  0.84541366  0.89734790  0.99920491    -0.05100
C434        C  0.86319069  0.88586958  0.53382398    -0.32600
C435        C  0.89424069  0.85431718  0.53567062     0.36700
C436        C  0.90768073  0.83308842  0.50253593    -0.05500
C437        C  0.88921097  0.84392828  0.96804796    -0.32500
C438        C  0.85860559  0.87584958  0.96611977     0.36600
H439        H  0.85365016  0.90198930  0.55961951     0.16900
O440        O  0.91174899  0.84521102  0.56991454    -0.60000
H441        H  0.89902063  0.82806117  0.94220158     0.17000
O442        O  0.84308435  0.88667378  0.93153815    -0.60100
H443        H  0.81760604  0.86802931  0.92770484     0.44000
H444        H  0.93549816  0.86601595  0.57307099     0.43900
C445        C  0.91025203  0.16077557  0.00135176    -0.05100
C446        C  0.89976087  0.14058998  0.96728975    -0.32600
C447        C  0.86907475  0.10810339  0.96608502     0.36700
C448        C  0.84731551  0.09541482  0.49930376    -0.05500
C449        C  0.85681192  0.11639804  0.53335794    -0.32500
C450        C  0.88798603  0.14874823  0.53461389     0.36600
H451        H  0.91603047  0.14943680  0.94129837     0.16900
O452        O  0.86045094  0.08924028  0.93203230    -0.60000
H453        H  0.84046821  0.10733256  0.55926189     0.17000
O454        O  0.89618577  0.16835849  0.56843995    -0.60100
H455        H  0.91653810  0.14974504  0.58135302     0.44000
H456        H  0.88419262  0.06919238  0.92754467     0.43900
C457        C  0.61857039  0.99902895  0.84501181    -0.05100
C458        C  0.64910263  0.03142488  0.84931547    -0.32600
C459        C  0.67753642  0.03127125  0.87966957     0.36700
C460        C  0.67571674  0.99829797  0.90633279    -0.05500
C461        C  0.64582481  0.96527812  0.90118103    -0.32500
C462        C  0.61751959  0.96547982  0.87081721     0.36600
H463        H  0.65020210  0.05737839  0.82956355     0.16900
O464        O  0.70725226  0.06329077  0.88268624    -0.60000
H465        H  0.64387101  0.93951115  0.92108674     0.17000
O466        O  0.58795889  0.93338772  0.86719353    -0.60100
H467        H  0.60031485  0.91401908  0.84779039     0.44000
H468        H  0.69309709  0.08525045  0.89844528     0.43900
C469        C  0.61242567  0.99657561  0.64797320    -0.05100
C470        C  0.63314680  0.03405872  0.63726338    -0.32600
C471        C  0.66310765  0.03425317  0.60756913     0.36700
C472        C  0.67319050  0.99632466  0.58833859    -0.05500
C473        C  0.65285623  0.95856852  0.59973029    -0.32500
C474        C  0.62238951  0.95861187  0.62916100     0.36600
H475        H  0.62564067  0.06337574  0.65176850     0.16900
O476        O  0.68272808  0.07166857  0.59797426    -0.60000
H477        H  0.65998676  0.92907321  0.58538541     0.17000
O478        O  0.60173014  0.92170520  0.63877047    -0.60100
H479        H  0.62100698  0.90765555  0.65669278     0.44000
H480        H  0.66245071  0.08570642  0.58085542     0.43900
C481        C  0.10621652  0.82840715  0.00416126    -0.05100
C482        C  0.11985756  0.84589553  0.53853754    -0.32600
C483        C  0.15099791  0.87800414  0.53918235     0.36700
C484        C  0.16871239  0.89322540  0.50500367    -0.05500
C485        C  0.15593848  0.87481650  0.97085083    -0.32500
C486        C  0.12531122  0.84250434  0.97020619     0.36600
H487        H  0.10582173  0.83526119  0.56497779     0.16900
O488        O  0.16265167  0.89519317  0.57321638    -0.60000
H489        H  0.16949640  0.88569337  0.94431530     0.17000
O490        O  0.11444027  0.82493842  0.93611066    -0.60100
H491        H  0.09217519  0.84366282  0.92588103     0.44000
H492        H  0.18508092  0.87618813  0.58292224     0.43900
C493        C  0.16535437  0.09033964  0.99814647    -0.05100
C494        C  0.15551427  0.10993373  0.96389864    -0.32600
C495        C  0.12666707  0.14366380  0.96304780     0.36700
C496        C  0.10777739  0.15875339  0.49690365    -0.05500
C497        C  0.11825773  0.13947662  0.53100003    -0.32500
C498        C  0.14594474  0.10519627  0.53177968     0.36600
H499        H  0.16990679  0.09890665  0.93767350     0.16900
O500        O  0.11701482  0.16129061  0.92900368    -0.60000
H501        H  0.10396717  0.15022637  0.55734030     0.17000
O502        O  0.15338836  0.08630158  0.56573584    -0.60100
H503        H  0.12984251  0.06524209  0.56886683     0.44000
H504        H  0.09040244  0.14672881  0.92084302     0.43900
C505        C  0.39861526  0.00574836  0.85236548    -0.05100
C506        C  0.37273784  0.04075723  0.86042192    -0.32600
C507        C  0.34421028  0.04012811  0.89134839     0.36700
C508        C  0.34086105  0.00373325  0.91400263    -0.05500
C509        C  0.36726933  0.96909773  0.90596659    -0.32500
C510        C  0.39622741  0.97010954  0.87564034     0.36600
H511        H  0.37495393  0.06860330  0.84288801     0.16900
O512        O  0.31883446  0.07455010  0.89838532    -0.60000
H513        H  0.36572856  0.94119310  0.92346253     0.17000
O514        O  0.42260999  0.93633599  0.86916288    -0.60100
H515        H  0.40602572  0.91695510  0.85255755     0.44000
H516        H  0.33707516  0.09447667  0.91292693     0.43900
C517        C  0.39153212  0.99627046  0.65466406    -0.05100
C518        C  0.35970367  0.02706430  0.65213769    -0.32600
C519        C  0.33113641  0.02668342  0.62196731     0.36700
C520        C  0.33441411  0.99530891  0.59356542    -0.05500
C521        C  0.36552091  0.96380875  0.59684088    -0.32500
C522        C  0.39393695  0.96416104  0.62700346     0.36600
H523        H  0.35770959  0.05203463  0.67314131     0.16900
O524        O  0.30067457  0.05755342  0.62025983    -0.60000
H525        H  0.36858884  0.93937466  0.57543883     0.17000
O526        O  0.42534883  0.93414281  0.62822064    -0.60100
H527        H  0.41605321  0.91433708  0.64832996     0.44000
H528        H  0.27502023  0.04557272  0.63342695     0.43900
loop_ 
_geom_bond_atom_site_label_1 
_geom_bond_atom_site_label_2 
_geom_bond_distance 
_geom_bond_site_symmetry_2 
_ccdc_geom_bond_type 
In1          O12   2.243   1_565  S
In1           O6   2.229       .  S
In1           O8   2.236       .  S
In1          O13   2.217   1_565  S
In1         O267   2.245       .  S
In1         O268   2.238   1_565  S
In1         O273   2.252   1_565  S
In1         O274   2.238       .  S
C2           O10   1.256       .  A
C2          O272   1.260   1_554  A
C2          C220   1.473       .  S
O3         In265   2.245       .  S
O3           C11   1.261       .  A
O4         In265   2.238   1_545  S
O4           C11   1.260   1_545  A
C5           O12   1.261       .  A
C5            O6   1.262   1_545  A
C5          C244   1.474       .  S
C7           O13   1.259       .  A
C7          O273   1.261       .  A
C7          C229   1.478       .  S
O8          C266   1.260       .  A
O9         In265   2.252   1_546  S
O9          C271   1.261       .  A
O10        In265   2.239       .  S
C11         C256   1.479       .  S
N14          C19   1.351   1_565  A
N14          C18   1.351   1_565  A
N14          H46   1.041       .  S
N15          C22   1.350   1_545  A
N15          C23   1.352   1_545  A
N16          C21   1.352       .  A
N16          C20   1.353       .  A
N16          H47   1.039   1_545  S
N17          C24   1.351   1_545  A
N17          C25   1.350   1_545  A
C18          C26   1.388       .  A
C18          C34   1.412   1_545  A
C19          C35   1.413   1_545  A
C19          C27   1.388       .  A
C20          C28   1.387       .  A
C20          C37   1.413       .  A
C21          C36   1.412       .  A
C21          C29   1.387       .  A
C22          C34   1.411       .  A
C22          C30   1.386       .  A
C23          C37   1.412   1_565  A
C23          C31   1.385       .  A
C24          C32   1.386       .  A
C24          C35   1.413       .  A
C25          C33   1.387       .  A
C25          C36   1.412   1_565  A
C26          C27   1.375       .  A
C26          H38   1.082       .  S
C27          H39   1.083       .  S
C28          C29   1.374       .  A
C28          H40   1.082       .  S
C29          H41   1.082       .  S
C30          C31   1.375       .  A
C30          H42   1.082       .  S
C31          H43   1.082       .  S
C32          C33   1.376       .  A
C32          H44   1.082       .  S
C33          H45   1.082       .  S
C34         C205   1.481       .  S
C35         C253   1.486       .  S
C36         C241   1.480       .  S
C37         C193   1.488   1_545  S
In48         O59   2.255   1_565  S
In48         O53   2.261       .  S
In48         O55   2.263   1_565  S
In48         O60   2.254       .  S
In48        O314   2.238   1_565  S
In48        O315   2.255       .  S
In48        O320   2.242       .  S
In48        O321   2.246   1_565  S
C49          O57   1.261       .  A
C49         O319   1.261   1_556  A
C49         C184   1.487       .  S
O50        In312   2.238   1_544  S
O50          C58   1.261   1_545  A
O51        In312   2.255   1_554  S
O51          C58   1.261       .  A
C52          O59   1.259   1_565  A
C52          O53   1.259       .  A
C52         C196   1.486       .  S
C54          O60   1.259       .  A
C54         O320   1.259       .  A
C54         C169   1.481       .  S
O55         C313   1.261       .  A
O56        In312   2.242   1_554  S
O56         C318   1.259   1_554  A
O57        In312   2.246   1_545  S
C58         C208   1.482       .  S
In61         O72   2.247   1_455  S
In61         O66   2.261       .  S
In61         O68   2.260       .  S
In61         O73   2.245   1_455  S
In61        O327   2.245       .  S
In61        O328   2.246   1_455  S
In61        O333   2.265   1_455  S
In61        O334   2.234       .  S
C62          O70   1.259   1_556  A
C62         O332   1.259       .  A
C62         C232   1.480       .  S
O63        In325   2.245   1_554  S
O63          C71   1.261       .  A
O64        In325   2.246   1_654  S
O64          C71   1.261   1_655  A
C65          O72   1.261   1_455  A
C65          O66   1.261       .  A
C65         C148   1.484       .  S
C67          O73   1.261       .  A
C67         O333   1.259       .  A
C67         C181   1.486       .  S
O68         C326   1.259       .  A
O69        In325   2.265   1_654  S
O69         C331   1.259       .  A
O70        In325   2.234   1_554  S
C71         C160   1.482       .  S
N74          C79   1.352       .  A
N74          C78   1.351       .  A
N74         H106   1.036   1_455  S
N75          C82   1.352       .  A
N75          C83   1.352       .  A
N76          C81   1.352       .  A
N76          C80   1.355       .  A
N76         H107   1.036   1_455  S
N77          C84   1.351       .  A
N77          C85   1.351   1_455  A
C78          C86   1.388       .  A
C78          C94   1.412       .  A
C79          C95   1.412       .  A
C79          C87   1.388       .  A
C80          C88   1.386       .  A
C80          C97   1.414       .  A
C81          C96   1.415       .  A
C81          C89   1.388       .  A
C82          C94   1.413       .  A
C82          C90   1.386   1_455  A
C83          C97   1.413       .  A
C83          C91   1.385   1_455  A
C84          C92   1.386   1_455  A
C84          C95   1.411       .  A
C85          C93   1.386       .  A
C85          C96   1.412   1_655  A
C86          C87   1.372       .  A
C86          H98   1.083       .  S
C87          H99   1.083       .  S
C88          C89   1.371       .  A
C88         H100   1.082       .  S
C89         H101   1.082       .  S
C90          C91   1.373       .  A
C90         H102   1.082       .  S
C91         H103   1.082       .  S
C92          C93   1.373       .  A
C92         H104   1.082       .  S
C93         H105   1.082       .  S
C94         C157   1.482       .  S
C95         C133   1.478       .  S
C96         C121   1.482   1_455  S
C97         C145   1.488       .  S
In108       O119   2.230       .  S
In108       O113   2.235   1_455  S
In108       O115   2.233   1_455  S
In108       O120   2.244       .  S
In108       O374   2.230   1_455  S
In108       O375   2.232       .  S
In108       O380   2.215       .  S
In108       O381   2.254   1_455  S
C109        O117   1.260       .  A
C109        O379   1.259   1_554  A
C109        C172   1.480       .  S
O110       In372   2.230   1_655  S
O110        C118   1.260   1_655  A
O111       In372   2.232       .  S
O111        C118   1.259       .  A
C112        O119   1.259       .  A
C112        O113   1.261   1_455  A
C112        C124   1.473       .  S
C114        O120   1.261       .  A
C114        O380   1.259       .  A
C114        C217   1.473       .  S
O115        C373   1.259       .  A
O116       In372   2.215   1_556  S
O116        C378   1.259   1_556  A
O117       In372   2.254   1_655  S
C118        C136   1.470       .  S
C121        C122   1.401   1_655  A
C121        C126   1.407       .  A
C122        C123   1.397       .  A
C122        H127   1.084       .  S
C123        C124   1.411       .  A
C123        O128   1.372       .  S
C124        C125   1.404   1_455  A
C125        C126   1.397       .  A
C125        H129   1.084       .  S
C126        O130   1.372       .  S
O128        H132   0.991       .  S
O130        H131   0.992       .  S
C133        C134   1.400       .  A
C133        C138   1.404   1_455  A
C134        C135   1.398       .  A
C134        H139   1.083       .  S
C135        C136   1.411       .  A
C135        O140   1.372       .  S
C136        C137   1.403   1_455  A
C137        C138   1.396       .  A
C137        H141   1.084       .  S
C138        O142   1.371       .  S
O140        H144   0.991       .  S
O142        H143   0.992       .  S
C145        C146   1.403       .  A
C145        C150   1.404   1_455  A
C146        C147   1.404       .  A
C146        H151   1.084       .  S
C147        C148   1.413       .  A
C147        O152   1.372       .  S
C148        C149   1.406   1_455  A
C149        C150   1.400       .  A
C149        H153   1.083       .  S
C150        O154   1.371       .  S
O152        H156   0.993       .  S
O154        H155   0.991       .  S
C157        C158   1.399       .  A
C157        C162   1.405   1_455  A
C158        C159   1.400       .  A
C158        H163   1.084       .  S
C159        C160   1.413       .  A
C159        O164   1.371       .  S
C160        C161   1.406   1_455  A
C161        C162   1.399       .  A
C161        H165   1.083       .  S
C162        O166   1.372       .  S
O164        H168   0.991       .  S
O166        H167   0.992       .  S
C169        C174   1.410       .  A
C169        C434   1.405       .  A
C170        C171   1.400       .  A
C170        C433   1.405   1_554  A
C170        H175   1.083       .  S
C171        C172   1.410       .  A
C171        O176   1.371       .  S
C172        C437   1.404   1_554  A
C173        C174   1.399       .  A
C173        C436   1.404       .  A
C173        H177   1.084       .  S
C174        O178   1.371       .  S
O176        H180   0.993       .  S
O178        H179   0.995       .  S
C181        C182   1.403       .  A
C181        C450   1.413       .  A
C182        C183   1.398       .  A
C182        H187   1.083       .  S
C183        C448   1.410       .  A
C183        O188   1.371       .  S
C184        C185   1.407   1_556  A
C184        C447   1.410       .  A
C185        C186   1.406       .  A
C185        H189   1.084       .  S
C186        C445   1.413       .  A
C186        O190   1.372       .  S
O188        H192   0.990       .  S
O190        H191   0.989       .  S
C193        C194   1.401   1_565  A
C193        C198   1.407       .  A
C194        C195   1.403       .  A
C194        H199   1.083       .  S
C195        C196   1.414   1_545  A
C195        O200   1.371       .  S
C196        C197   1.406       .  A
C197        C198   1.401       .  A
C197        H201   1.083       .  S
C198        O202   1.371       .  S
O200        H204   0.992       .  S
O202        H203   0.994       .  S
C205        C206   1.398   1_565  A
C205        C210   1.405       .  A
C206        C207   1.398       .  A
C206        H211   1.084       .  S
C207        C208   1.412   1_545  A
C207        O212   1.371       .  S
C208        C209   1.407       .  A
C209        C210   1.401       .  A
C209        H213   1.083       .  S
C210        O214   1.372       .  S
O212        H216   0.992       .  S
O214        H215   0.991       .  S
C217        C222   1.409       .  A
C217        C482   1.404       .  A
C218        C219   1.399       .  A
C218        C481   1.404       .  A
C218        H223   1.084       .  S
C219        C220   1.411       .  A
C219        O224   1.372       .  S
C220        C485   1.401   1_554  A
C221        C222   1.393       .  A
C221        C484   1.401       .  A
C221        H225   1.083       .  S
C222        O226   1.372       .  S
O224        H228   0.993       .  S
O226        H227   0.991       .  S
C229        C230   1.406       .  A
C229        C498   1.409       .  A
C230        C231   1.403       .  A
C230        H235   1.084       .  S
C231        C496   1.412       .  A
C231        O236   1.372       .  S
C232        C233   1.402   1_556  A
C232        C495   1.412       .  A
C233        C234   1.393       .  A
C233        H237   1.083       .  S
C234        C493   1.409   1_554  A
C234        O238   1.372       .  S
O236        H240   0.990       .  S
O238        H239   0.992       .  S
C241        C242   1.402       .  A
C241        C246   1.404   1_545  A
C242        C243   1.403       .  A
C242        H247   1.084       .  S
C243        C244   1.412       .  A
C243        O248   1.372       .  S
C244        C245   1.402   1_545  A
C245        C246   1.395       .  A
C245        H249   1.083       .  S
C246        O250   1.371       .  S
O248        H252   0.991       .  S
O250        H251   0.993       .  S
C253        C254   1.401   1_565  A
C253        C258   1.409       .  A
C254        C255   1.400       .  A
C254        H259   1.084       .  S
C255        C256   1.412   1_545  A
C255        O260   1.371       .  S
C256        C257   1.404       .  A
C257        C258   1.397       .  A
C257        H261   1.083       .  S
C258        O262   1.372       .  S
O260        H264   0.994       .  S
O262        H263   0.992       .  S
In265       O276   2.243   1_564  S
In265       O270   2.229   1_554  S
In265       O272   2.236   1_554  S
In265       O277   2.217   1_565  S
C266        O274   1.256       .  A
C266        C484   1.473       .  S
O267        C275   1.261       .  A
O268        C275   1.260   1_545  A
C269        O276   1.261       .  A
C269        O270   1.262   1_545  A
C269        C508   1.474       .  S
C271        O277   1.259   1_556  A
C271        C493   1.478       .  S
C275        C520   1.479       .  S
N278        C283   1.351   1_565  A
N278        C282   1.351   1_565  A
N278        H310   1.041       .  S
N279        C286   1.350   1_545  A
N279        C287   1.352   1_545  A
N280        C285   1.352       .  A
N280        C284   1.353       .  A
N280        H311   1.039   1_545  S
N281        C288   1.351   1_545  A
N281        C289   1.350   1_545  A
C282        C290   1.388       .  A
C282        C298   1.412   1_545  A
C283        C299   1.413   1_545  A
C283        C291   1.388       .  A
C284        C292   1.387       .  A
C284        C301   1.413       .  A
C285        C300   1.412       .  A
C285        C293   1.387       .  A
C286        C298   1.411       .  A
C286        C294   1.386       .  A
C287        C301   1.412   1_565  A
C287        C295   1.385       .  A
C288        C296   1.386       .  A
C288        C299   1.413       .  A
C289        C297   1.387       .  A
C289        C300   1.412   1_565  A
C290        C291   1.375       .  A
C290        H302   1.082       .  S
C291        H303   1.083       .  S
C292        C293   1.374       .  A
C292        H304   1.082       .  S
C293        H305   1.082       .  S
C294        C295   1.375       .  A
C294        H306   1.082       .  S
C295        H307   1.082       .  S
C296        C297   1.376       .  A
C296        H308   1.082       .  S
C297        H309   1.082       .  S
C298        C469   1.481       .  S
C299        C517   1.486       .  S
C300        C505   1.480       .  S
C301        C457   1.488   1_545  S
In312       O323   2.255   1_565  S
In312       O317   2.261       .  S
In312       O319   2.263   1_566  S
In312       O324   2.254       .  S
C313        O321   1.261       .  A
C313        C448   1.487       .  S
O314        C322   1.261   1_545  A
O315        C322   1.261       .  A
C316        O323   1.259   1_565  A
C316        O317   1.259       .  A
C316        C460   1.486       .  S
C318        O324   1.259       .  A
C318        C433   1.481       .  S
C322        C472   1.482       .  S
In325       O336   2.247   1_455  S
In325       O330   2.261       .  S
In325       O332   2.260       .  S
In325       O337   2.245   1_455  S
C326        O334   1.259       .  A
C326        C496   1.480       .  S
O327        C335   1.261       .  A
O328        C335   1.261   1_655  A
C329        O336   1.261   1_455  A
C329        O330   1.261       .  A
C329        C412   1.484       .  S
C331        O337   1.261   1_554  A
C331        C445   1.486       .  S
C335        C424   1.482       .  S
N338        C343   1.352       .  A
N338        C342   1.351       .  A
N338        H370   1.036   1_455  S
N339        C346   1.352       .  A
N339        C347   1.352       .  A
N340        C345   1.352       .  A
N340        C344   1.355       .  A
N340        H371   1.036   1_455  S
N341        C348   1.351       .  A
N341        C349   1.351   1_455  A
C342        C350   1.388       .  A
C342        C358   1.412       .  A
C343        C359   1.412       .  A
C343        C351   1.388       .  A
C344        C352   1.386       .  A
C344        C361   1.414       .  A
C345        C360   1.415       .  A
C345        C353   1.388       .  A
C346        C358   1.413       .  A
C346        C354   1.386   1_455  A
C347        C361   1.413       .  A
C347        C355   1.385   1_455  A
C348        C356   1.386   1_455  A
C348        C359   1.411       .  A
C349        C357   1.386       .  A
C349        C360   1.412   1_655  A
C350        C351   1.372       .  A
C350        H362   1.083       .  S
C351        H363   1.083       .  S
C352        C353   1.371       .  A
C352        H364   1.082       .  S
C353        H365   1.082       .  S
C354        C355   1.373       .  A
C354        H366   1.082       .  S
C355        H367   1.082       .  S
C356        C357   1.373       .  A
C356        H368   1.082       .  S
C357        H369   1.082       .  S
C358        C421   1.482       .  S
C359        C397   1.478       .  S
C360        C385   1.482   1_455  S
C361        C409   1.488       .  S
In372       O383   2.230   1_554  S
In372       O377   2.235   1_454  S
In372       O379   2.233   1_454  S
In372       O384   2.244       .  S
C373        O381   1.260       .  A
C373        C436   1.480       .  S
O374        C382   1.260   1_655  A
O375        C382   1.259       .  A
C376        O383   1.259       .  A
C376        O377   1.261   1_455  A
C376        C388   1.473       .  S
C378        O384   1.261       .  A
C378        C481   1.473       .  S
C382        C400   1.470       .  S
C385        C386   1.401   1_655  A
C385        C390   1.407       .  A
C386        C387   1.397       .  A
C386        H391   1.084       .  S
C387        C388   1.411       .  A
C387        O392   1.372       .  S
C388        C389   1.404   1_455  A
C389        C390   1.397       .  A
C389        H393   1.084       .  S
C390        O394   1.372       .  S
O392        H396   0.991       .  S
O394        H395   0.992       .  S
C397        C398   1.400       .  A
C397        C402   1.404   1_455  A
C398        C399   1.398       .  A
C398        H403   1.083       .  S
C399        C400   1.411       .  A
C399        O404   1.372       .  S
C400        C401   1.403   1_455  A
C401        C402   1.396       .  A
C401        H405   1.084       .  S
C402        O406   1.371       .  S
O404        H408   0.991       .  S
O406        H407   0.992       .  S
C409        C410   1.403       .  A
C409        C414   1.404   1_455  A
C410        C411   1.404       .  A
C410        H415   1.084       .  S
C411        C412   1.413       .  A
C411        O416   1.372       .  S
C412        C413   1.406   1_455  A
C413        C414   1.400       .  A
C413        H417   1.083       .  S
C414        O418   1.371       .  S
O416        H420   0.993       .  S
O418        H419   0.991       .  S
C421        C422   1.399       .  A
C421        C426   1.405   1_455  A
C422        C423   1.400       .  A
C422        H427   1.084       .  S
C423        C424   1.413       .  A
C423        O428   1.371       .  S
C424        C425   1.406   1_455  A
C425        C426   1.399       .  A
C425        H429   1.083       .  S
C426        O430   1.372       .  S
O428        H432   0.991       .  S
O430        H431   0.992       .  S
C433        C438   1.410       .  A
C434        C435   1.400       .  A
C434        H439   1.083       .  S
C435        C436   1.410       .  A
C435        O440   1.371       .  S
C437        C438   1.399       .  A
C437        H441   1.084       .  S
C438        O442   1.371       .  S
O440        H444   0.993       .  S
O442        H443   0.995       .  S
C445        C446   1.403   1_554  A
C446        C447   1.398       .  A
C446        H451   1.083       .  S
C447        O452   1.371       .  S
C448        C449   1.407       .  A
C449        C450   1.406       .  A
C449        H453   1.084       .  S
C450        O454   1.372       .  S
O452        H456   0.990       .  S
O454        H455   0.989       .  S
C457        C458   1.401   1_565  A
C457        C462   1.407       .  A
C458        C459   1.403       .  A
C458        H463   1.083       .  S
C459        C460   1.414   1_545  A
C459        O464   1.371       .  S
C460        C461   1.406       .  A
C461        C462   1.401       .  A
C461        H465   1.083       .  S
C462        O466   1.371       .  S
O464        H468   0.992       .  S
O466        H467   0.994       .  S
C469        C470   1.398   1_565  A
C469        C474   1.405       .  A
C470        C471   1.398       .  A
C470        H475   1.084       .  S
C471        C472   1.412   1_545  A
C471        O476   1.371       .  S
C472        C473   1.407       .  A
C473        C474   1.401       .  A
C473        H477   1.083       .  S
C474        O478   1.372       .  S
O476        H480   0.992       .  S
O478        H479   0.991       .  S
C481        C486   1.409   1_554  A
C482        C483   1.399       .  A
C482        H487   1.084       .  S
C483        C484   1.411       .  A
C483        O488   1.372       .  S
C485        C486   1.393       .  A
C485        H489   1.083       .  S
C486        O490   1.372       .  S
O488        H492   0.993       .  S
O490        H491   0.991       .  S
C493        C494   1.406       .  A
C494        C495   1.403       .  A
C494        H499   1.084       .  S
C495        O500   1.372       .  S
C496        C497   1.402       .  A
C497        C498   1.393       .  A
C497        H501   1.083       .  S
C498        O502   1.372       .  S
O500        H504   0.990       .  S
O502        H503   0.992       .  S
C505        C506   1.402       .  A
C505        C510   1.404   1_545  A
C506        C507   1.403       .  A
C506        H511   1.084       .  S
C507        C508   1.412       .  A
C507        O512   1.372       .  S
C508        C509   1.402   1_545  A
C509        C510   1.395       .  A
C509        H513   1.083       .  S
C510        O514   1.371       .  S
O512        H516   0.991       .  S
O514        H515   0.993       .  S
C517        C518   1.401   1_565  A
C517        C522   1.409       .  A
C518        C519   1.400       .  A
C518        H523   1.084       .  S
C519        C520   1.412   1_545  A
C519        O524   1.371       .  S
C520        C521   1.404       .  A
C521        C522   1.397       .  A
C521        H525   1.083       .  S
C522        O526   1.372       .  S
O524        H528   0.994       .  S
O526        H527   0.992       .  S
