geometry optimzed in LAMMPS
_audit_creation_date              2020-11-30 
_audit_creation_method            'lammps2cif' 
_symmetry_space_group_name_H-M    'P1' 
_symmetry_Int_Tables_number       1 
_symmetry_cell_setting            triclinic 
loop_ 
_symmetry_equiv_pos_as_xyz 
  x,y,z 
_cell_length_a                    23.12671498 
_cell_length_b                    53.801586331016836 
_cell_length_c                    20.866335319796928 
_cell_angle_alpha                 89.97189324656618 
_cell_angle_beta                  90.04880278139638 
_cell_angle_gamma                 90.33253777788613 
loop_ 
_atom_site_label 
_atom_site_type_symbol 
_atom_site_fract_x 
_atom_site_fract_y 
_atom_site_fract_z 
_atom_site_charge 
C1          C  0.45706032  0.24397586  0.75587686     0.03500
C2          C  0.42336222  0.24299543  0.81289271    -0.12600
C3          C  0.36262604  0.24532403  0.81151036     0.01000
C4          C  0.33436967  0.24714408  0.75242783    -0.11200
C5          C  0.36538808  0.24666131  0.69512743     0.03500
C6          C  0.42620763  0.24583055  0.69690685    -0.10600
H7          H  0.44314531  0.24097706  0.85935717     0.09100
H8          H  0.28779331  0.24928852  0.75099420     0.06600
H9          H  0.44809182  0.24717244  0.65149645     0.06500
C10         C  0.52326240  0.24399802  0.75795617     0.03500
C11         C  0.55665888  0.24259859  0.70084130    -0.12600
C12         C  0.61734506  0.24510628  0.70158844     0.01000
C13         C  0.64606768  0.24728158  0.76028409    -0.11200
C14         C  0.61540606  0.24718923  0.81784949     0.03500
C15         C  0.55446042  0.24630489  0.81664137    -0.10600
H16         H  0.53675148  0.24014328  0.65458404     0.09100
H17         H  0.69271596  0.24941301  0.76118635     0.06600
H18         H  0.53271101  0.24784298  0.86209217     0.06500
C19         C  0.02318235  0.26828760  0.25569734     0.03500
C20         C  0.05373671  0.26614405  0.19664906    -0.12600
C21         C  0.11457855  0.26529169  0.19464602     0.01000
C22         C  0.14587033  0.26510557  0.25184678    -0.11200
C23         C  0.11775942  0.26673231  0.31097538     0.03500
C24         C  0.05710884  0.26924925  0.31257896    -0.10600
H25         H  0.03157818  0.26461112  0.15139187     0.09100
H26         H  0.19250374  0.26319647  0.25036698     0.06600
H27         H  0.03757911  0.27142856  0.35908481     0.06500
C28         C  0.95702498  0.26849046  0.25806468     0.03500
C29         C  0.92341320  0.26996882  0.20109380    -0.12600
C30         C  0.86275265  0.26746878  0.20211929     0.01000
C31         C  0.83420862  0.26557010  0.26094705    -0.11200
C32         C  0.86514422  0.26552432  0.31839869     0.03500
C33         C  0.92609149  0.26623864  0.31688716    -0.10600
H34         H  0.94316093  0.27248484  0.15479217     0.09100
H35         H  0.78751597  0.26364300  0.26199412     0.06600
H36         H  0.94805327  0.26453067  0.36221501     0.06500
N37         N  0.17449119  0.12646785  0.00132302    -0.26900
N38         N  0.23006797  0.12895789  0.98765992    -0.34800
C39         C  0.24333775  0.15297488  0.98069195     0.01400
C40         C  0.19427479  0.16679254  0.99022826     0.07500
C41         C  0.15091052  0.14943430  0.00320700    -0.05600
H42         H  0.28656286  0.15998981  0.97186878     0.08100
H43         H  0.10617928  0.15323544  0.01447265     0.09300
Cu44       Cu  0.29159930  0.10188378  0.98821817     0.44200
Cu45       Cu  0.13717013  0.09155987  0.02125263     0.42000
Cu46       Cu  0.25195866  0.04649123  0.05183429     0.43900
N47         N  0.35314385  0.07686661  0.01492052    -0.34300
N48         N  0.33752769  0.05458865  0.03455663    -0.28600
C49         C  0.38143803  0.04430571  0.06648497    -0.04700
C50         C  0.42568940  0.06166741  0.07131780     0.07600
C51         C  0.40665877  0.08195865  0.03654162     0.01400
H52         H  0.37590252  0.02828191  0.09734334     0.09000
H53         H  0.42485043  0.10052437  0.03824922     0.08100
N54         N  0.16539468  0.03962381  0.06621312    -0.35700
N55         N  0.12304683  0.05414470  0.04655737    -0.27900
C56         C  0.07543546  0.03984836  0.03807754    -0.03200
C57         C  0.08842329  0.01538412  0.05471877     0.05400
C58         C  0.14550060  0.01643466  0.07387584     0.03500
H59         H  0.03702083  0.04600618  0.01322599     0.08600
H60         H  0.17370362  0.00057433  0.07922813     0.07500
N61         N  0.25670858  0.22650839  0.94218679    -0.36200
N62         N  0.29487441  0.27683722  0.95361989    -0.56800
N63         N  0.21773312  0.28390737  0.06370656    -0.36200
N64         N  0.17468644  0.23288286  0.04889918    -0.56800
C65         C  0.28561155  0.22894200  0.88591009     0.27400
C66         C  0.22329515  0.20589266  0.93780650     0.27400
C67         C  0.23049658  0.30792655  0.04926250     0.27400
C68         C  0.17220948  0.28387563  0.10463629     0.27400
C69         C  0.33368860  0.26932035  0.90917758     0.36000
C70         C  0.31049466  0.30006112  0.97137711     0.36000
C71         C  0.17412293  0.20777780  0.04366660     0.36000
C72         C  0.15351608  0.23822807  0.10777778     0.36000
C73         C  0.27033612  0.20946045  0.84555948    -0.21500
C74         C  0.23076745  0.19509167  0.87807302    -0.21500
C75         C  0.19299022  0.32335200  0.08229023    -0.21500
C76         C  0.15678029  0.30819380  0.11788177    -0.21500
C77         C  0.37444473  0.28790576  0.89901237    -0.22600
C78         C  0.35981091  0.30729059  0.93835593    -0.22600
C79         C  0.15159789  0.19722811  0.09897843    -0.22600
C80         C  0.13806778  0.21651145  0.13929012    -0.22600
C81         C  0.32795215  0.24740785  0.87193702    -0.17900
C82         C  0.19386991  0.19442401  0.98953153    -0.17900
C83         C  0.14659929  0.26247065  0.13294721    -0.17900
C84         C  0.27613432  0.31625249  0.00870130    -0.17900
H85         H  0.28694923  0.20540193  0.79831465     0.15000
H86         H  0.21141351  0.17799810  0.86075496     0.15000
H87         H  0.19239196  0.34346354  0.08169118     0.15000
H88         H  0.12274998  0.31435683  0.14960684     0.15000
H89         H  0.40962914  0.28811353  0.86494215     0.13300
H90         H  0.38168440  0.32511046  0.94051284     0.13300
H91         H  0.14604243  0.17772504  0.10992483     0.13300
H92         H  0.11985391  0.21470575  0.18684729     0.13300
H93         H  0.26530720  0.23605653  0.98444195     0.26500
H94         H  0.24176727  0.26843598  0.05096946     0.26500
N95         N  0.31813744  0.38134730  0.98007692    -0.26900
N96         N  0.29010124  0.37524527  0.92716858    -0.34800
C97         C  0.26698235  0.35250908  0.93321976     0.01400
C98         C  0.28123015  0.34315635  0.99259222     0.07500
C99         C  0.31450901  0.36185350  0.02121289    -0.05600
H100        H  0.24430208  0.34277626  0.89532524     0.08100
H101        H  0.33658642  0.36083174  0.06684842     0.09300
Cu102      Cu  0.28378004  0.39724962  0.84729644     0.44200
Cu103      Cu  0.35937642  0.41650681  0.98644784     0.42000
Cu104      Cu  0.32950658  0.45778480  0.84594016     0.43900
N105        N  0.24283184  0.42363172  0.79380037    -0.34300
N106        N  0.25522796  0.44748020  0.79842290    -0.28600
C107        C  0.20765069  0.46081140  0.78370562    -0.04700
C108        C  0.16371025  0.44412851  0.76918458     0.07600
C109        C  0.18819037  0.42089459  0.77472312     0.01400
H110        H  0.20349975  0.48063911  0.79076602     0.09000
H111        H  0.16541751  0.40325843  0.77495514     0.08100
N112        N  0.38414816  0.46656529  0.92049391    -0.35700
N113        N  0.38888479  0.45359123  0.97418113    -0.27900
C114        C  0.40326147  0.46952291  0.02151748    -0.03200
C115        C  0.40766486  0.49349489  0.99663324     0.05400
C116        C  0.39724676  0.49045543  0.93199158     0.03500
H117        H  0.40052451  0.46482872  0.07185518     0.08600
H118        H  0.38600185  0.50528461  0.89925682     0.07500
N119        N  0.67753176  0.27978307  0.96293001    -0.36200
N120        N  0.75810987  0.28620332  0.07154140    -0.56800
N121        N  0.79563300  0.23615294  0.05822857    -0.36200
N122        N  0.71979171  0.22883567  0.94745796    -0.56800
C123        C  0.68116298  0.30491275  0.96674364     0.27400
C124        C  0.65773746  0.27408348  0.90353850     0.27400
C125        C  0.83442008  0.24413592  0.10262907     0.27400
C126        C  0.81315591  0.21364689  0.03753984     0.27400
C127        C  0.72837985  0.30766507  0.07391621     0.36000
C128        C  0.78793403  0.28450665  0.12719604     0.36000
C129        C  0.67509848  0.22842454  0.90542376     0.36000
C130        C  0.73458997  0.20485272  0.95849550     0.36000
C131        C  0.66244637  0.31522995  0.90944089    -0.21500
C132        C  0.64703395  0.29581827  0.86994115    -0.21500
C133        C  0.87735195  0.22641436  0.10967223    -0.21500
C134        C  0.86407812  0.20730186  0.06848515    -0.21500
C135        C  0.73918997  0.31967117  0.13157186    -0.22600
C136        C  0.77713891  0.30510196  0.16513193    -0.22600
C137        C  0.66253829  0.20409667  0.88824591    -0.22600
C138        C  0.69973807  0.18915575  0.92245570    -0.22600
C139        C  0.70074819  0.31867605  0.02062085    -0.17900
C140        C  0.64835800  0.24981287  0.87908662    -0.17900
C141        C  0.77984746  0.19704708  0.99976507    -0.17900
C142        C  0.82824542  0.26559421  0.14157870    -0.17900
H143        H  0.66048852  0.33468470  0.89670520     0.15000
H144        H  0.63098696  0.29754929  0.82140699     0.15000
H145        H  0.91334864  0.22651480  0.14272211     0.15000
H146        H  0.88781137  0.19010828  0.06399701     0.15000
H147        H  0.72329916  0.33763232  0.14660263     0.13300
H148        H  0.79596865  0.30968213  0.21113909     0.13300
H149        H  0.62987024  0.19779583  0.85471166     0.13300
H150        H  0.70145154  0.16907429  0.92039923     0.13300
H151        H  0.68450504  0.26725757  0.00011095     0.26500
H152        H  0.75482926  0.24343247  0.05022660     0.26500
N153        N  0.82288519  0.13207799  0.02452681    -0.26900
N154        N  0.79802095  0.13795347  0.07935742    -0.34800
C155        C  0.77534529  0.16071245  0.07549798     0.01400
C156        C  0.78654062  0.17025847  0.01549397     0.07500
C157        C  0.81756088  0.15171234  0.98418054    -0.05600
H158        H  0.75424998  0.17015008  0.11476896     0.08100
H159        H  0.83661987  0.15282851  0.93694203     0.09300
Cu160      Cu  0.79176382  0.11488668  0.15698168     0.44200
Cu161      Cu  0.86163305  0.09682853  0.01412654     0.42000
Cu162      Cu  0.82944270  0.05309427  0.14991166     0.43900
N163        N  0.74418490  0.08786240  0.20115481    -0.34300
N164        N  0.75429752  0.06392679  0.19467649    -0.28600
C165        C  0.70513817  0.05111367  0.20734035    -0.04700
C166        C  0.66254413  0.06823872  0.22190523     0.07600
C167        C  0.68929326  0.09115854  0.21840611     0.01400
H168        H  0.69946172  0.03133609  0.20018369     0.09000
H169        H  0.66857271  0.10912857  0.22046587     0.08100
N170        N  0.88729451  0.04636639  0.07689482    -0.35700
N171        N  0.89173539  0.05993036  0.02411728    -0.27900
C172        C  0.90666699  0.04466604  0.97575077    -0.03200
C173        C  0.91167518  0.02048870  0.99897394     0.05400
C174        C  0.90179023  0.02282491  0.06391784     0.03500
H175        H  0.90351203  0.04983500  0.92575647     0.08600
H176        H  0.89084723  0.00754858  0.09552776     0.07500
N177        N  0.68851586  0.38652034  0.00250384    -0.26900
N178        N  0.74388575  0.38353913  0.01618776    -0.34800
C179        C  0.75492948  0.35945603  0.02486226     0.01400
C180        C  0.70441117  0.34619994  0.01681622     0.07500
C181        C  0.66270305  0.36389092  0.00251684    -0.05600
H182        H  0.79741261  0.35201165  0.03463366     0.08100
H183        H  0.61754221  0.36053268  0.99187440     0.09300
Cu184      Cu  0.80703251  0.41028689  0.01657029     0.44200
Cu185      Cu  0.65441320  0.42149202  0.98053505     0.42000
Cu186      Cu  0.77130371  0.46771540  0.96612439     0.43900
N187        N  0.87033904  0.43579839  0.99675931    -0.34300
N188        N  0.85639729  0.45878489  0.98216856    -0.28600
C189        C  0.90000422  0.46930056  0.94974946    -0.04700
C190        C  0.94173242  0.45141992  0.93877577     0.07600
C191        C  0.92234839  0.43064190  0.97171318     0.01400
H192        H  0.89443746  0.48599369  0.92145299     0.09000
H193        H  0.93781403  0.41187771  0.96495620     0.08100
N194        N  0.68629844  0.47392006  0.94179362    -0.35700
N195        N  0.64265847  0.45872306  0.95428582    -0.27900
C196        C  0.59364072  0.47219973  0.95510334    -0.03200
C197        C  0.60714815  0.49686946  0.94103043     0.05400
C198        C  0.66619278  0.49681545  0.93124426     0.03500
H199        H  0.55277010  0.46535190  0.97339686     0.08600
H200        H  0.69379356  0.51313363  0.93020533     0.07500
O201        O  0.50479555  0.04304900  0.34398677    -0.72600
O202        O  0.47080396  0.04289019  0.15898518    -0.73500
O203        O  0.57495780  0.04396582  0.23403543    -0.62200
O204        O  0.40083983  0.04369755  0.26888782    -0.70600
O205        O  0.40577230  0.08490729  0.27058892    -0.70100
O206        O  0.57070907  0.08516721  0.23196444    -0.61400
O207        O  0.46794047  0.08418457  0.15756202    -0.73900
O208        O  0.50819485  0.08434573  0.34519293    -0.72700
Cu209      Cu  0.48789012  0.04190417  0.25147642     1.04600
Cu210      Cu  0.48820521  0.08603854  0.25131050     1.04300
C211        C  0.51585212  0.06337474  0.37277465     0.93600
C212        C  0.45941045  0.06317297  0.13035589     0.92800
C213        C  0.59985340  0.06523691  0.22926329     0.84900
C214        C  0.37629361  0.06492406  0.27344052     0.91200
N215        N  0.15950939  0.13097456  0.48415401    -0.26900
N216        N  0.18500413  0.13694659  0.42966266    -0.34800
C217        C  0.20866979  0.15961323  0.43419724     0.01400
C218        C  0.19734033  0.16899896  0.49426143     0.07500
C219        C  0.16525750  0.15045926  0.52488383    -0.05600
H220        H  0.22998061  0.16920802  0.39513009     0.08100
H221        H  0.14550135  0.15154243  0.57175627     0.09300
Cu222      Cu  0.18869365  0.11445741  0.35081740     0.44200
Cu223      Cu  0.11883231  0.09597197  0.49345971     0.42000
Cu224      Cu  0.14711475  0.05300933  0.35573492     0.43900
N225        N  0.23308822  0.08759850  0.30324188    -0.34300
N226        N  0.22211817  0.06367535  0.30960304    -0.28600
C227        C  0.27065306  0.05079292  0.29604622    -0.04700
C228        C  0.31367629  0.06787450  0.28088294     0.07600
C229        C  0.28777876  0.09082065  0.28491543     0.01400
H230        H  0.27577451  0.03101398  0.30324653     0.09000
H231        H  0.30920560  0.10874833  0.28311695     0.08100
N232        N  0.09035268  0.04591931  0.42981877    -0.35700
N233        N  0.08697139  0.05930783  0.48291219    -0.27900
C234        C  0.07226021  0.04392110  0.53125195    -0.03200
C235        C  0.06644569  0.01981231  0.50775465     0.05400
C236        C  0.07553814  0.02232521  0.44268260     0.03500
H237        H  0.07642509  0.04893945  0.58126206     0.08600
H238        H  0.08579253  0.00714140  0.41068668     0.07500
N239        N  0.28995263  0.38615954  0.51098564    -0.26900
N240        N  0.23453473  0.38261175  0.49797586    -0.34800
C241        C  0.22392251  0.35837596  0.49058812     0.01400
C242        C  0.27482892  0.34562847  0.49849371     0.07500
C243        C  0.31626505  0.36376540  0.51159290    -0.05600
H244        H  0.18164439  0.35051591  0.48080400     0.08100
H245        H  0.36170807  0.36089290  0.52121566     0.09300
Cu246      Cu  0.17113097  0.40894323  0.49424083     0.44200
Cu247      Cu  0.32373775  0.42159100  0.53027170     0.42000
Cu248      Cu  0.20583850  0.46691219  0.54284469     0.43900
N249        N  0.10746095  0.43435741  0.51071936    -0.34300
N250        N  0.12112780  0.45756537  0.52393154    -0.28600
C251        C  0.07689990  0.46820135  0.55450471    -0.04700
C252        C  0.03517222  0.45018443  0.56630997     0.07600
C253        C  0.05511799  0.42917248  0.53525084     0.01400
H254        H  0.08201279  0.48521842  0.58166168     0.09000
H255        H  0.03974942  0.41039109  0.54331664     0.08100
N256        N  0.29088994  0.47404074  0.56625490    -0.35700
N257        N  0.33478585  0.45920795  0.55366749    -0.27900
C258        C  0.38324475  0.47323956  0.55021376    -0.03200
C259        C  0.36914721  0.49788433  0.56283355     0.05400
C260        C  0.31038984  0.49727324  0.57438789     0.03500
H261        H  0.42389037  0.46666865  0.53115991     0.08600
H262        H  0.28224233  0.51328267  0.57475081     0.07500
N263        N  0.18707652  0.23495528  0.45256599    -0.36200
N264        N  0.26314930  0.22785161  0.56339025    -0.56800
N265        N  0.30380621  0.27924025  0.55007118    -0.36200
N266        N  0.22295720  0.28544257  0.44153668    -0.56800
C267        C  0.17009749  0.21222097  0.47275733     0.27400
C268        C  0.14766697  0.24288681  0.40898220     0.27400
C269        C  0.32377111  0.27345955  0.60929972     0.27400
C270        C  0.29992470  0.30435357  0.54683415     0.27400
C271        C  0.24900103  0.20379681  0.55152406     0.36000
C272        C  0.30742142  0.22766294  0.60597587     0.36000
C273        C  0.19288174  0.28384824  0.38598118     0.36000
C274        C  0.25212109  0.30720511  0.43992661     0.36000
C275        C  0.11901042  0.20562267  0.44209850    -0.21500
C276        C  0.10497650  0.22487548  0.40177068    -0.21500
C277        C  0.33456674  0.29514707  0.64323741    -0.21500
C278        C  0.31898277  0.31459258  0.60417171    -0.21500
C279        C  0.28399391  0.18825700  0.58742083    -0.22600
C280        C  0.32049051  0.20338172  0.62253152    -0.22600
C281        C  0.20299979  0.30478028  0.34884868    -0.22600
C282        C  0.24075246  0.31947744  0.38280907    -0.22600
C283        C  0.20384367  0.19578331  0.51010664    -0.17900
C284        C  0.15285150  0.26469881  0.37107840    -0.17900
C285        C  0.27954364  0.31818642  0.49358198    -0.17900
C286        C  0.33316861  0.24917950  0.63341036    -0.17900
H287        H  0.09552034  0.18824191  0.44639186     0.15000
H288        H  0.06854959  0.22497498  0.36928548     0.15000
H289        H  0.35081881  0.29682936  0.69171318     0.15000
H290        H  0.32098840  0.33402198  0.61721815     0.15000
H291        H  0.28268643  0.16815442  0.58896074     0.13300
H292        H  0.35296019  0.19723772  0.65631076     0.13300
H293        H  0.18382713  0.30947387  0.30314103     0.13300
H294        H  0.25609944  0.33769082  0.36844867     0.13300
H295        H  0.22782286  0.24252690  0.46045880     0.26500
H296        H  0.29666562  0.26682237  0.51265674     0.26500
N297        N  0.72171481  0.22625575  0.56995757    -0.36200
N298        N  0.68269094  0.27628560  0.55714144    -0.56800
N299        N  0.75999161  0.28352529  0.44731560    -0.36200
N300        N  0.80342207  0.23270002  0.46312749    -0.56800
C301        C  0.69314211  0.22867733  0.62639999     0.27400
C302        C  0.75414529  0.20550348  0.57389286     0.27400
C303        C  0.74680748  0.30748450  0.46123969     0.27400
C304        C  0.80631385  0.28375219  0.40747670     0.27400
C305        C  0.64483581  0.26880307  0.60280623     0.36000
C306        C  0.66650223  0.29927598  0.53870839     0.36000
C307        C  0.80326464  0.20758328  0.46798313     0.36000
C308        C  0.82507362  0.23819961  0.40450150     0.36000
C309        C  0.70773220  0.20907714  0.66647318    -0.21500
C310        C  0.74635779  0.19458536  0.63350698    -0.21500
C311        C  0.78482790  0.32311642  0.42898349    -0.21500
C312        C  0.82186388  0.30815798  0.39447660    -0.21500
C313        C  0.60405922  0.28717342  0.61306515    -0.22600
C314        C  0.61759229  0.30634735  0.57234857    -0.22600
C315        C  0.82575577  0.19717543  0.41262606    -0.22600
C316        C  0.84016317  0.21657063  0.37276818    -0.22600
C317        C  0.65134420  0.24711943  0.64069231    -0.17900
C318        C  0.78303366  0.19411192  0.52190852    -0.17900
C319        C  0.83249095  0.26250496  0.37967348    -0.17900
C320        C  0.70056753  0.31558353  0.50090792    -0.17900
H321        H  0.69107947  0.20499978  0.71375737     0.15000
H322        H  0.76491618  0.17736729  0.65048607     0.15000
H323        H  0.78534541  0.34323136  0.42950526     0.15000
H324        H  0.85649876  0.31451073  0.36357575     0.15000
H325        H  0.56960050  0.28741644  0.64801958     0.13300
H326        H  0.59553904  0.32401461  0.57000365     0.13300
H327        H  0.83078608  0.17770397  0.40137059     0.13300
H328        H  0.85856576  0.21489638  0.32529426     0.13300
H329        H  0.71343418  0.23588954  0.52782097     0.26500
H330        H  0.73578644  0.26791617  0.45958993     0.26500
N331        N  0.79972882  0.12619775  0.50804903    -0.26900
N332        N  0.74422773  0.12875858  0.52154429    -0.34800
C333        C  0.73193333  0.15276016  0.52949008     0.01400
C334        C  0.78161893  0.16649234  0.52074558     0.07500
C335        C  0.82430581  0.14909883  0.50724505    -0.05600
H336        H  0.68893295  0.15984860  0.53810876     0.08100
H337        H  0.86918348  0.15285010  0.49607429     0.09300
Cu338      Cu  0.68184188  0.10180001  0.51854326     0.44200
Cu339      Cu  0.83505471  0.09129345  0.48612817     0.42000
Cu340      Cu  0.71910108  0.04576200  0.45779379     0.43900
N341        N  0.61949886  0.07693680  0.49141703    -0.34300
N342        N  0.63393870  0.05436143  0.47362156    -0.28600
C343        C  0.59019991  0.04421206  0.44070088    -0.04700
C344        C  0.54762793  0.06196916  0.43310584     0.07600
C345        C  0.56711264  0.08234013  0.46752216     0.01400
H346        H  0.59545007  0.02792863  0.41083555     0.09000
H347        H  0.55051296  0.10105726  0.46402750     0.08100
N348        N  0.80523993  0.03930958  0.44113500    -0.35700
N349        N  0.84808173  0.05405206  0.45936096    -0.27900
C350        C  0.89612977  0.04009222  0.46524948    -0.03200
C351        C  0.88288573  0.01563215  0.44843977     0.05400
C352        C  0.82512619  0.01630308  0.43192719     0.03500
H353        H  0.93538510  0.04642638  0.48847451     0.08600
H354        H  0.79699666  0.00025283  0.42714679     0.07500
N355        N  0.65764566  0.38052332  0.52675324    -0.26900
N356        N  0.68514058  0.37484382  0.58027058    -0.34800
C357        C  0.70843624  0.35222380  0.57533175     0.01400
C358        C  0.69487310  0.34249813  0.51613836     0.07500
C359        C  0.66182469  0.36083937  0.48638957    -0.05600
H360        H  0.73096298  0.34285366  0.61377923     0.08100
H361        H  0.64043511  0.35948151  0.44039565     0.09300
Cu362      Cu  0.69177381  0.39726836  0.65938450     0.44200
Cu363      Cu  0.61675755  0.41551640  0.51788659     0.42000
Cu364      Cu  0.64746111  0.45787538  0.65725188     0.43900
N365        N  0.73283722  0.42413023  0.71195089    -0.34300
N366        N  0.72127405  0.44794790  0.70574588    -0.28600
C367        C  0.76922415  0.46135665  0.71999334    -0.04700
C368        C  0.81251443  0.44475386  0.73591542     0.07600
C369        C  0.78723125  0.42151289  0.73170133     0.01400
H370        H  0.77410142  0.48110483  0.71166272     0.09000
H371        H  0.80939842  0.40385008  0.73271548     0.08100
N372        N  0.59169543  0.46560062  0.58301657    -0.35700
N373        N  0.58690724  0.45248597  0.52954043    -0.27900
C374        C  0.57119523  0.46818771  0.48227057    -0.03200
C375        C  0.56577128  0.49212819  0.50708365     0.05400
C376        C  0.57715102  0.48926354  0.57155173     0.03500
H377        H  0.57335443  0.46347389  0.43192892     0.08600
H378        H  0.58792362  0.50426970  0.60407219     0.07500
O379        O  0.90458822  0.42825487  0.74188994    -0.72600
O380        O  0.07089235  0.42786381  0.76391334    -0.73500
O381        O  0.97565874  0.42920547  0.84814616    -0.62200
O382        O  0.99985939  0.42860476  0.65768038    -0.70600
O383        O  0.99925763  0.46990865  0.65815781    -0.70100
O384        O  0.97820106  0.47049949  0.84604349    -0.61400
O385        O  0.07692160  0.46904267  0.76250519    -0.73900
O386        O  0.90045648  0.46945002  0.74171825    -0.72700
Cu387      Cu  0.98770207  0.42716891  0.75293678     1.04600
Cu388      Cu  0.98875578  0.47129535  0.75207902     1.04300
C389        C  0.87534658  0.44813168  0.74005362     0.93600
C390        C  0.10103972  0.44764557  0.76495771     0.92800
C391        C  0.96959957  0.45019488  0.87603293     0.84900
C392        C  0.00698124  0.44940874  0.62898229     0.91200
C393        C  0.45523756  0.76856282  0.25288795     0.03500
C394        C  0.42303831  0.77021993  0.31070723    -0.12600
C395        C  0.36242141  0.76762798  0.31127069     0.01000
C396        C  0.33256883  0.76542590  0.25329207    -0.11200
C397        C  0.36217991  0.76539870  0.19511436     0.03500
C398        C  0.42306148  0.76622190  0.19494860    -0.10600
H399        H  0.44394001  0.77301282  0.35634012     0.09100
H400        H  0.28586149  0.76351400  0.25345268     0.06600
H401        H  0.44402981  0.76449624  0.14907682     0.06500
C402        C  0.52125247  0.76812569  0.25341704     0.03500
C403        C  0.55305695  0.76513088  0.31136900    -0.12600
C404        C  0.61382585  0.76379792  0.31140684     0.01000
C405        C  0.64367480  0.76395239  0.25341788    -0.11200
C406        C  0.61423110  0.76670226  0.19542142     0.03500
C407        C  0.55374332  0.76967889  0.19572016    -0.10600
H408        H  0.53189085  0.76342423  0.35715685     0.09100
H409        H  0.69028361  0.76184180  0.25343091     0.06600
H410        H  0.53316444  0.77275818  0.15005986     0.06500
C411        C  0.02104064  0.74572820  0.75268062     0.03500
C412        C  0.05377610  0.74413979  0.81029017    -0.12600
C413        C  0.11456120  0.74655280  0.81038184     0.01000
C414        C  0.14389183  0.74857291  0.75202919    -0.11200
C415        C  0.11382433  0.74867091  0.69404026     0.03500
C416        C  0.05286407  0.74803714  0.69444470    -0.10600
H417        H  0.03309419  0.74152705  0.85609249     0.09100
H418        H  0.19061519  0.75040125  0.75174488     0.06600
H419        H  0.03152680  0.74985520  0.64876001     0.06500
C420        C  0.95482314  0.74595629  0.75360435     0.03500
C421        C  0.92303980  0.74880983  0.81168503    -0.12600
C422        C  0.86207862  0.74972162  0.81190729     0.01000
C423        C  0.83215747  0.74947584  0.75385493    -0.11200
C424        C  0.86145869  0.74687238  0.69570518     0.03500
C425        C  0.92207489  0.74413291  0.69602539    -0.10600
H426        H  0.94442348  0.75066464  0.85736076     0.09100
H427        H  0.78551161  0.75143016  0.75395428     0.06600
H428        H  0.94260490  0.74101130  0.65040364     0.06500
N429        N  0.18093941  0.88756522  0.49919456    -0.26900
N430        N  0.23699287  0.88540672  0.48805961    -0.34800
C431        C  0.25108026  0.86143175  0.48476500     0.01400
C432        C  0.20192816  0.84735635  0.49347424     0.07500
C433        C  0.15779904  0.86444081  0.50278501    -0.05600
H434        H  0.29456535  0.85468222  0.47739062     0.08100
H435        H  0.11266013  0.86037742  0.51174362     0.09300
Cu436      Cu  0.29751637  0.91316427  0.48487686     0.44200
Cu437      Cu  0.14194912  0.92232229  0.51269875     0.42000
Cu438      Cu  0.25557122  0.96881991  0.54366921     0.43900
N439        N  0.35797919  0.93866429  0.51328709    -0.34300
N440        N  0.34179025  0.96094177  0.53170927    -0.28600
C441        C  0.38442620  0.97142223  0.56578808    -0.04700
C442        C  0.42824390  0.95420724  0.57303096     0.07600
C443        C  0.41046022  0.93378823  0.53770637     0.01400
H444        H  0.37790480  0.98752600  0.59597390     0.09000
H445        H  0.42837459  0.91528453  0.54065081     0.08100
N446        N  0.16839170  0.97505461  0.55395005    -0.35700
N447        N  0.12677432  0.95978575  0.53506550    -0.27900
C448        C  0.07846496  0.97329098  0.52571256    -0.03200
C449        C  0.09019137  0.99802943  0.54089954     0.05400
C450        C  0.14735636  0.99803498  0.55992344     0.03500
H451        H  0.04022214  0.96634304  0.50157960     0.08600
H452        H  0.17463728  0.01434610  0.56482121     0.07500
N453        N  0.17812833  0.78102387  0.54970097    -0.36200
N454        N  0.26000822  0.78741526  0.44251677    -0.56800
N455        N  0.29549314  0.73704721  0.45557329    -0.36200
N456        N  0.21902870  0.72996999  0.56574020    -0.56800
C457        C  0.18119393  0.80614618  0.54532242     0.27400
C458        C  0.15733553  0.77543607  0.60871218     0.27400
C459        C  0.33494964  0.74495240  0.41190036     0.27400
C460        C  0.31258097  0.71453665  0.47670949     0.27400
C461        C  0.22993450  0.80877260  0.43913639     0.36000
C462        C  0.28945921  0.78542668  0.38674875     0.36000
C463        C  0.17400492  0.72972540  0.60726044     0.36000
C464        C  0.23318419  0.70592907  0.55462205     0.36000
C465        C  0.16121656  0.81659612  0.60182214    -0.21500
C466        C  0.14566918  0.79724622  0.64152425    -0.21500
C467        C  0.37795036  0.72722578  0.40583296    -0.21500
C468        C  0.36400187  0.70815063  0.44692651    -0.21500
C469        C  0.24046475  0.82047190  0.38100267    -0.22600
C470        C  0.27842285  0.80578831  0.34800255    -0.22600
C471        C  0.16058527  0.70544015  0.62404764    -0.22600
C472        C  0.19754936  0.69035688  0.59005817    -0.22600
C473        C  0.20090261  0.81978604  0.49138407    -0.17900
C474        C  0.14746647  0.75120365  0.63325584    -0.17900
C475        C  0.27850881  0.69798555  0.51374745    -0.17900
C476        C  0.32910908  0.76628697  0.37252191    -0.17900
H477        H  0.15832141  0.83611441  0.61367500     0.15000
H478        H  0.12855154  0.79907059  0.68954493     0.15000
H479        H  0.41445884  0.72733574  0.37353912     0.15000
H480        H  0.38760522  0.69094708  0.45208453     0.15000
H481        H  0.22392394  0.83820105  0.36497152     0.13300
H482        H  0.29674607  0.81004860  0.30156693     0.13300
H483        H  0.12741222  0.69925813  0.65706894     0.13300
H484        H  0.19852827  0.67026194  0.59184364     0.13300
H485        H  0.18575311  0.76844534  0.51286936     0.26500
H486        H  0.25456001  0.74435893  0.46253311     0.26500
N487        N  0.31538366  0.63199413  0.49389256    -0.26900
N488        N  0.29585139  0.63820619  0.43656545    -0.34800
C489        C  0.27703797  0.66165694  0.43751848     0.01400
C490        C  0.28504022  0.67118717  0.49816003     0.07500
C491        C  0.31001199  0.65194567  0.53305384    -0.05600
H492        H  0.25973643  0.67134607  0.39634934     0.08100
H493        H  0.32468510  0.65266402  0.58225340     0.09300
Cu494      Cu  0.28816430  0.61468398  0.35971302     0.44200
Cu495      Cu  0.34798104  0.59608705  0.51080033     0.42000
Cu496      Cu  0.32214008  0.55308875  0.37494832     0.43900
N497        N  0.23992014  0.58750292  0.31622413    -0.34300
N498        N  0.24914732  0.56364001  0.32549785    -0.28600
C499        C  0.20054463  0.55077459  0.31074396    -0.04700
C500        C  0.15911347  0.56774094  0.29149729     0.07600
C501        C  0.18603346  0.59068606  0.29489825     0.01400
H502        H  0.19424090  0.53110625  0.31920352     0.09000
H503        H  0.16581367  0.60865665  0.28941779     0.08100
N504        N  0.37548283  0.54565510  0.45157431    -0.35700
N505        N  0.37723255  0.55912061  0.50458848    -0.27900
C506        C  0.38894685  0.54378178  0.55393576    -0.03200
C507        C  0.39482893  0.51962990  0.53097689     0.05400
C508        C  0.38848499  0.52203724  0.46546052     0.03500
H509        H  0.38301366  0.54892451  0.60361349     0.08600
H510        H  0.37879152  0.50683494  0.43312898     0.07500
N511        N  0.29766043  0.62707088  0.99629539    -0.26900
N512        N  0.24142781  0.62946751  0.98630398    -0.34800
C513        C  0.22779157  0.65349429  0.98341188     0.01400
C514        C  0.27730149  0.66736732  0.99137698     0.07500
C515        C  0.32126099  0.65012111  0.99974663    -0.05600
H516        H  0.18434156  0.66042015  0.97683562     0.08100
H517        H  0.36662435  0.65402451  0.00779332     0.09300
Cu518      Cu  0.17953594  0.60224920  0.98399895     0.44200
Cu519      Cu  0.33702363  0.59219048  0.00746453     0.42000
Cu520      Cu  0.22334946  0.54700896  0.04323990     0.43900
N521        N  0.11974392  0.57663206  0.01322473    -0.34300
N522        N  0.13685594  0.55458853  0.03251630    -0.28600
C523        C  0.09460774  0.54390387  0.06667037    -0.04700
C524        C  0.04990839  0.56073351  0.07281638     0.07600
C525        C  0.06687439  0.58115155  0.03697051     0.01400
H526        H  0.10166593  0.52794994  0.09728305     0.09000
H527        H  0.04794756  0.59948338  0.03899206     0.08100
N528        N  0.31027260  0.53956125  0.04826451    -0.35700
N529        N  0.35175664  0.55439935  0.02700224    -0.27900
C530        C  0.39850089  0.54031600  0.01408873    -0.03200
C531        C  0.38594576  0.51567753  0.02975139     0.05400
C532        C  0.32993705  0.51628243  0.05227861     0.03500
H533        H  0.43600143  0.54689590  0.98798875     0.08600
H534        H  0.30194423  0.50028846  0.05885545     0.07500
N535        N  0.16025995  0.88190980  0.99467257    -0.26900
N536        N  0.18387537  0.87595057  0.93913526    -0.34800
C537        C  0.20257448  0.85249844  0.94102714     0.01400
C538        C  0.19030134  0.84270951  0.00042621     0.07500
C539        C  0.16290004  0.86176583  0.03360454    -0.05600
H540        H  0.22236549  0.84294775  0.90110530     0.08100
H541        H  0.14453739  0.86075287  0.08119535     0.09300
Cu542      Cu  0.19407406  0.89933447  0.86251903     0.44200
Cu543      Cu  0.12452646  0.91750231  0.00877796     0.42000
Cu544      Cu  0.15280786  0.96034492  0.87310031     0.43900
N545        N  0.23722203  0.92692603  0.81501535    -0.34300
N546        N  0.22649949  0.95068977  0.82382935    -0.28600
C547        C  0.27411352  0.96408765  0.80822094    -0.04700
C548        C  0.31627541  0.94752169  0.78874299     0.07600
C549        C  0.29076977  0.92432052  0.79267951     0.01400
H550        H  0.27943145  0.98380763  0.81663158     0.09000
H551        H  0.31213401  0.90656681  0.78795082     0.08100
N552        N  0.09442882  0.96702459  0.94553159    -0.35700
N553        N  0.09110157  0.95378886  0.99886562    -0.27900
C554        C  0.07414622  0.96906621  0.04638132    -0.03200
C555        C  0.06677466  0.99297845  0.02195354     0.05400
C556        C  0.07738108  0.99034349  0.95719443     0.03500
H557        H  0.07751176  0.96431471  0.09663659     0.08600
H558        H  0.08694830  0.00556938  0.92487904     0.07500
N559        N  0.18106825  0.77712581  0.95568164    -0.36200
N560        N  0.21913922  0.72725128  0.94077651    -0.56800
N561        N  0.29975708  0.73345541  0.04951021    -0.36200
N562        N  0.25630640  0.78399674  0.06725183    -0.56800
C563        C  0.14213684  0.76922882  0.91130495     0.27400
C564        C  0.16322876  0.79945534  0.97727751     0.27400
C565        C  0.29745025  0.70835536  0.04425191     0.27400
C566        C  0.31968976  0.73881450  0.10902242     0.27400
C567        C  0.18937327  0.72920642  0.88510479     0.36000
C568        C  0.24989651  0.70607717  0.93717031     0.36000
C569        C  0.24095562  0.80797420  0.05743202     0.36000
C570        C  0.30067643  0.78433545  0.10966428     0.36000
C571        C  0.09881638  0.78682635  0.90524862    -0.21500
C572        C  0.11207766  0.80580612  0.94688368    -0.21500
C573        C  0.31707505  0.69769617  0.10074159    -0.21500
C574        C  0.33167144  0.71690468  0.14131116    -0.21500
C575        C  0.20109833  0.70901846  0.84606958    -0.22600
C576        C  0.23965365  0.69448561  0.87884219    -0.22600
C577        C  0.27495050  0.82356454  0.09475809    -0.22600
C578        C  0.31230884  0.80856663  0.12843847    -0.22600
C579        C  0.14859433  0.74803968  0.87144172    -0.17900
C580        C  0.19623211  0.81589834  0.01577377    -0.17900
C581        C  0.32829807  0.76293831  0.13459353    -0.17900
C582        C  0.27862031  0.69492658  0.98958169    -0.17900
H583        H  0.06255268  0.78675054  0.87257053     0.15000
H584        H  0.08808870  0.82289706  0.95222380     0.15000
H585        H  0.32037361  0.67812915  0.11197732     0.15000
H586        H  0.34822751  0.71492420  0.18957189     0.15000
H587        H  0.18264248  0.70468143  0.79972924     0.13300
H588        H  0.25650137  0.67683502  0.86270538     0.13300
H589        H  0.27266893  0.84361142  0.09790881     0.13300
H590        H  0.34455746  0.81477632  0.16257813     0.13300
H591        H  0.22208683  0.76997692  0.96315361     0.26500
H592        H  0.29211948  0.74620490  0.01302083     0.26500
N593        N  0.79849935  0.78138860  0.95715182    -0.36200
N594        N  0.71714426  0.78711088  0.06477322    -0.56800
N595        N  0.68093578  0.73655140  0.05093377    -0.36200
N596        N  0.75655908  0.73024302  0.94009114    -0.56800
C597        C  0.79569311  0.80648718  0.96217271     0.27400
C598        C  0.81884256  0.77609384  0.89785221     0.27400
C599        C  0.64187357  0.74420518  0.09506645     0.27400
C600        C  0.66357327  0.71400178  0.02977972     0.27400
C601        C  0.74780757  0.80845602  0.06881123     0.36000
C602        C  0.68795209  0.78476022  0.12065864     0.36000
C603        C  0.80091191  0.73033344  0.89765409     0.36000
C604        C  0.74146547  0.70611697  0.94973216     0.36000
C605        C  0.81522504  0.81721988  0.90567498    -0.21500
C606        C  0.83041181  0.79806956  0.86542327    -0.21500
C607        C  0.59895486  0.72625866  0.10157852    -0.21500
C608        C  0.61249754  0.70730458  0.06023581    -0.21500
C609        C  0.73800168  0.81975275  0.12752136    -0.22600
C610        C  0.69983458  0.80484871  0.16018688    -0.22600
C611        C  0.81283052  0.70619921  0.87878552    -0.22600
C612        C  0.77567996  0.69085816  0.91230233    -0.22600
C613        C  0.77672919  0.81983239  0.01676280    -0.17900
C614        C  0.82821027  0.75198459  0.87261239    -0.17900
C615        C  0.69673711  0.69778857  0.99127461    -0.17900
C616        C  0.64784146  0.76553884  0.13441360    -0.17900
H617        H  0.81807015  0.83678827  0.89416943     0.15000
H618        H  0.84711754  0.80012618  0.81725929     0.15000
H619        H  0.56271108  0.72619708  0.13425419     0.15000
H620        H  0.58869866  0.69003439  0.05508872     0.15000
H621        H  0.75514683  0.83736814  0.14416426     0.13300
H622        H  0.68198138  0.80877445  0.20697968     0.13300
H623        H  0.84510323  0.70026980  0.84459588     0.13300
H624        H  0.77369547  0.67080119  0.90895806     0.13300
H625        H  0.79106621  0.76862847  0.99374626     0.26500
H626        H  0.72169621  0.74414946  0.04334000     0.26500
N627        N  0.79770161  0.88770850  0.00836040    -0.26900
N628        N  0.74182379  0.88542465  0.02070119    -0.34800
C629        C  0.72757101  0.86142279  0.02518246     0.01400
C630        C  0.77637202  0.84743701  0.01571708     0.07500
C631        C  0.82052402  0.86462961  0.00498805    -0.05600
H632        H  0.68407152  0.85458258  0.03320674     0.08100
H633        H  0.86538931  0.86065882  0.99482861     0.09300
Cu634      Cu  0.68139947  0.91294352  0.02287619     0.44200
Cu635      Cu  0.83662838  0.92258612  0.99298102     0.42000
Cu636      Cu  0.72298355  0.96860026  0.96379836     0.43900
N637        N  0.62065885  0.93812175  0.99500024    -0.34300
N638        N  0.63683320  0.96056686  0.97725836    -0.28600
C639        C  0.59420305  0.97101698  0.94357719    -0.04700
C640        C  0.55052404  0.95358488  0.93554066     0.07600
C641        C  0.56824102  0.93307625  0.97027902     0.01400
H642        H  0.60081863  0.98727784  0.91382011     0.09000
H643        H  0.55042874  0.91448523  0.96661396     0.08100
N644        N  0.81004767  0.97524337  0.95218552    -0.35700
N645        N  0.85175932  0.96017897  0.97080802    -0.27900
C646        C  0.90001699  0.97395908  0.98018303    -0.03200
C647        C  0.88819245  0.99866594  0.96523243     0.05400
C648        C  0.83100120  0.99835262  0.94626676     0.03500
H649        H  0.93827922  0.96720497  0.00429449     0.08600
H650        H  0.80362616  0.01451300  0.94171354     0.07500
N651        N  0.65898504  0.63149250  0.00820482    -0.26900
N652        N  0.67892362  0.63735226  0.06565211    -0.34800
C653        C  0.69803066  0.66085390  0.06567513     0.01400
C654        C  0.68978831  0.67083339  0.00557418     0.07500
C655        C  0.66435032  0.65176789  0.96995609    -0.05600
H656        H  0.71555555  0.67028936  0.10722890     0.08100
H657        H  0.64934938  0.65282422  0.92092516     0.09300
Cu658      Cu  0.68579398  0.61347135  0.14182057     0.44200
Cu659      Cu  0.62584759  0.59551781  0.99049211     0.42000
Cu660      Cu  0.64979349  0.55229826  0.12791913     0.43900
N661        N  0.73246698  0.58653225  0.18734211    -0.34300
N662        N  0.72252913  0.56264718  0.17876000    -0.28600
C663        C  0.77056913  0.54979481  0.19459829    -0.04700
C664        C  0.81238201  0.56682616  0.21373150     0.07600
C665        C  0.78620127  0.58977015  0.20924061     0.01400
H666        H  0.77641389  0.53010483  0.18660261     0.09000
H667        H  0.80697890  0.60775228  0.21407899     0.08100
N668        N  0.59717955  0.54498608  0.05030143    -0.35700
N669        N  0.59692261  0.55828117  0.99690555    -0.27900
C670        C  0.58666205  0.54269198  0.94758069    -0.03200
C671        C  0.58009473  0.51858476  0.97096434     0.05400
C672        C  0.58429551  0.52128432  0.03659261     0.03500
H673        H  0.59407663  0.54768224  0.89800882     0.08600
H674        H  0.59306945  0.50624354  0.06963816     0.07500
O675        O  0.00788016  0.58297293  0.15899604    -0.72600
O676        O  0.96352845  0.58360227  0.34502755    -0.73500
O677        O  0.06781843  0.58445187  0.27421941    -0.62200
O678        O  0.90386190  0.58384021  0.22980494    -0.70600
O679        O  0.89913886  0.54263350  0.23103936    -0.70100
O680        O  0.07214605  0.54325425  0.27521722    -0.61400
O681        O  0.96509452  0.54228567  0.34469072    -0.73900
O682        O  0.00633175  0.54166174  0.16143967    -0.72700
Cu683      Cu  0.98577895  0.58505958  0.25196632     1.04600
Cu684      Cu  0.98568777  0.54091644  0.25313736     1.04300
C685        C  0.01710556  0.56196429  0.13235898     0.93600
C686        C  0.95421115  0.56273993  0.37266906     0.92800
C687        C  0.09682999  0.56459374  0.28006330     0.84900
C688        C  0.87464163  0.56385405  0.22513842     0.91200
N689        N  0.67381755  0.62645062  0.51481731    -0.26900
N690        N  0.73015616  0.62916928  0.52394947    -0.34800
C691        C  0.74371573  0.65325935  0.52720307     0.01400
C692        C  0.69409891  0.66688661  0.52034152     0.07500
C693        C  0.65008699  0.64939313  0.51223172    -0.05600
H694        H  0.78728280  0.66041171  0.53264801     0.08100
H695        H  0.60468726  0.65306601  0.50441759     0.09300
Cu696      Cu  0.79239994  0.60244160  0.52317812     0.44200
Cu697      Cu  0.63481463  0.59127854  0.50235052     0.42000
Cu698      Cu  0.74806213  0.54704296  0.46323700     0.43900
N699        N  0.85176749  0.57730207  0.49209739    -0.34300
N700        N  0.83453805  0.55514644  0.47318498    -0.28600
C701        C  0.87650485  0.54465916  0.43870118    -0.04700
C702        C  0.92115291  0.56169807  0.43204675     0.07600
C703        C  0.90438324  0.58210727  0.46765055     0.01400
H704        H  0.86928899  0.52860403  0.40840227     0.09000
H705        H  0.92338766  0.60051620  0.46545571     0.08100
N706        N  0.66115207  0.53934882  0.45649158    -0.35700
N707        N  0.61974786  0.55366985  0.47923123    -0.27900
C708        C  0.57318852  0.53912029  0.49133557    -0.03200
C709        C  0.58582645  0.51471340  0.47380716     0.05400
C710        C  0.64157711  0.51601740  0.45060624     0.03500
H711        H  0.53602374  0.54510729  0.51863356     0.08600
H712        H  0.66976096  0.50030046  0.44295701     0.07500
N713        N  0.81800538  0.88114782  0.50654855    -0.26900
N714        N  0.79333459  0.87525646  0.56163985    -0.34800
C715        C  0.77538855  0.85160525  0.56022075     0.01400
C716        C  0.78924108  0.84163264  0.50158564     0.07500
C717        C  0.81680077  0.86077703  0.46831703    -0.05600
H718        H  0.75481120  0.84209170  0.59989366     0.08100
H719        H  0.83595041  0.85973282  0.42112783     0.06100
Cu720      Cu  0.78143383  0.89901981  0.63705921     0.44200
Cu721      Cu  0.85248648  0.91711641  0.49279266     0.42000
Cu722      Cu  0.82568319  0.95968626  0.63072497     0.43900
N723        N  0.74049148  0.92609443  0.68820772    -0.34300
N724        N  0.75250251  0.94989776  0.68135733    -0.28600
C725        C  0.70596384  0.96334025  0.69920142    -0.04700
C726        C  0.66312871  0.94677006  0.71818409     0.07600
C727        C  0.68721347  0.92348934  0.71161427     0.01400
H728        H  0.70161544  0.98317793  0.69244181     0.09000
H729        H  0.66483549  0.90581337  0.71510268     0.08100
N730        N  0.88217205  0.96680279  0.55650287    -0.35700
N731        N  0.88422136  0.95380343  0.50272827    -0.27900
C732        C  0.89883624  0.96946033  0.45488926    -0.03200
C733        C  0.90620917  0.99333192  0.47960987     0.05400
C734        C  0.89797601  0.99034729  0.54468297     0.03500
H735        H  0.89390209  0.96485902  0.40469675     0.08600
H736        H  0.88886861  0.00534415  0.57768690     0.07500
N737        N  0.79667254  0.77639040  0.54853248    -0.36200
N738        N  0.75501517  0.72691658  0.56732116    -0.56800
N739        N  0.67406955  0.73262155  0.45901368    -0.36200
N740        N  0.72119090  0.78270700  0.43738886    -0.56800
C741        C  0.83513182  0.76871602  0.59341412     0.27400
C742        C  0.81546428  0.79850731  0.52581324     0.27400
C743        C  0.67466808  0.70756233  0.46589388     0.27400
C744        C  0.65432037  0.73757519  0.39923040     0.27400
C745        C  0.78559227  0.72916088  0.62241561     0.36000
C746        C  0.72316259  0.70592167  0.57251474     0.36000
C747        C  0.73758928  0.80670407  0.44596704     0.36000
C748        C  0.67630230  0.78293454  0.39569250     0.36000
C749        C  0.87922777  0.78623070  0.59859312    -0.21500
C750        C  0.86681741  0.80495208  0.55597951    -0.21500
C751        C  0.65398703  0.69654757  0.41022296    -0.21500
C752        C  0.64060425  0.71548120  0.36846653    -0.21500
C753        C  0.77325878  0.70932142  0.66268694    -0.22600
C754        C  0.73356890  0.69471528  0.63125830    -0.22600
C755        C  0.70372923  0.82216810  0.40857594    -0.22600
C756        C  0.66540356  0.80707957  0.37608687    -0.22600
C757        C  0.82752044  0.74791690  0.63458417    -0.17900
C758        C  0.78299471  0.81478204  0.48673752    -0.17900
C759        C  0.64742881  0.76150851  0.37208062    -0.17900
C760        C  0.69329056  0.69447477  0.52110472    -0.17900
H761        H  0.91539011  0.78631214  0.63141235     0.15000
H762        H  0.89142745  0.82196675  0.54991299     0.15000
H763        H  0.64932622  0.67691948  0.40020260     0.15000
H764        H  0.62375945  0.71319273  0.32040069     0.15000
H765        H  0.79207246  0.70523270  0.70895680     0.13300
H766        H  0.71607386  0.67724952  0.64851574     0.13300
H767        H  0.70670228  0.84219144  0.40463040     0.13300
H768        H  0.63293200  0.81318037  0.34225427     0.13300
H769        H  0.75534937  0.76931726  0.54145059     0.26500
H770        H  0.68290781  0.74566392  0.49453838     0.26500
O771        O  0.57729823  0.97176718  0.73420638    -0.72600
O772        O  0.40338340  0.97219147  0.77414464    -0.73500
O773        O  0.50907787  0.97284371  0.84628255    -0.62200
O774        O  0.47136131  0.97323404  0.66203520    -0.70600
O775        O  0.46884681  0.93192962  0.66032406    -0.70100
O776        O  0.50963555  0.93153192  0.84770773    -0.61400
O777        O  0.40747846  0.93099145  0.77391875    -0.73900
O778        O  0.57117342  0.93059374  0.73414880    -0.72700
Cu779      Cu  0.49034798  0.97406743  0.75419397     1.04600
Cu780      Cu  0.48925820  0.92993131  0.75401824     1.04300
C781        C  0.60109800  0.95035634  0.72935815     0.93600
C782        C  0.37854016  0.95087553  0.77865492     0.92800
C783        C  0.51881549  0.95244717  0.87513338     0.84900
C784        C  0.46043452  0.95292060  0.63312282     0.91200
loop_ 
_geom_bond_atom_site_label_1 
_geom_bond_atom_site_label_2 
_geom_bond_distance 
_geom_bond_site_symmetry_2 
_ccdc_geom_bond_type 
C1            C2   1.424       .  A
C1            C6   1.426       .  A
C1           C10   1.532       .  S
C2            C3   1.411       .  A
C2            H7   1.077       .  S
C3            C4   1.398       .  A
C3           C81   1.499       .  S
C4            C5   1.395       .  A
C4            H8   1.084       .  S
C5            C6   1.408       .  A
C5          C286   1.494       .  S
C6            H9   1.077       .  S
C10          C11   1.423       .  A
C10          C15   1.426       .  A
C11          C12   1.409       .  A
C11          H16   1.077       .  S
C12          C13   1.397       .  A
C12         C317   1.498       .  S
C13          C14   1.395       .  A
C13          H17   1.084       .  S
C14          C15   1.410       .  A
C14         C140   1.494       .  S
C15          H18   1.077       .  S
C19          C20   1.426       .  A
C19          C24   1.423       .  A
C19          C28   1.531   1_455  S
C20          C21   1.409       .  A
C20          H25   1.077       .  S
C21          C22   1.395       .  A
C21          C83   1.494       .  S
C22          C23   1.398       .  A
C22          H26   1.084       .  S
C23          C24   1.410       .  A
C23         C284   1.498       .  S
C24          H27   1.077       .  S
C28          C29   1.422       .  A
C28          C33   1.426       .  A
C29          C30   1.409       .  A
C29          H34   1.077       .  S
C30          C31   1.398       .  A
C30         C142   1.497       .  S
C31          C32   1.396       .  A
C31          H35   1.084       .  S
C32          C33   1.410       .  A
C32         C319   1.494       .  S
C33          H36   1.077       .  S
N37          N38   1.323   1_554  A
N37          C41   1.354       .  A
N37         Cu45   2.104       .  S
N38          C39   1.334       .  A
N38         Cu44   2.042       .  S
C39          C40   1.375       .  A
C39          H42   1.082       .  S
C40          C41   1.393   1_556  A
C40          C82   1.487       .  S
C41          H43   1.082       .  S
Cu44         N47   2.042   1_556  S
Cu45         N55   2.105       .  S
Cu46         N48   2.056       .  S
Cu46         N54   2.056       .  S
N47          N48   1.315       .  A
N47          C51   1.344       .  A
N48          C49   1.336       .  A
C49          C50   1.385       .  A
C49          H52   1.083       .  S
C50          C51   1.384       .  A
C50         C212   1.459       .  S
C51          H53   1.082       .  S
N54          N55   1.321       .  A
N54          C58   1.337       .  A
N55          C56   1.351       .  A
C56          C57   1.395       .  A
C56          H59   1.082       .  S
C57          C58   1.380       .  A
C57         C555   1.471   1_545  S
C58          H60   1.083       .  S
N61          C66   1.351       .  A
N61          C65   1.358       .  A
N61          H93   1.039       .  S
N62          C69   1.355       .  A
N62          C70   1.351       .  A
N63          C68   1.356       .  A
N63          C67   1.358       .  A
N63          H94   1.038       .  S
N64          C71   1.355       .  A
N64          C72   1.355       .  A
C65          C73   1.389       .  A
C65          C81   1.421       .  A
C66          C82   1.416       .  A
C66          C74   1.387       .  A
C67          C75   1.388       .  A
C67          C84   1.424       .  A
C68          C83   1.421       .  A
C68          C76   1.386       .  A
C69          C81   1.418       .  A
C69          C77   1.387       .  A
C70          C84   1.417   1_556  A
C70          C78   1.387       .  A
C71          C79   1.387       .  A
C71          C82   1.416   1_554  A
C72          C80   1.386       .  A
C72          C83   1.416       .  A
C73          C74   1.374       .  A
C73          H85   1.081       .  S
C74          H86   1.083       .  S
C75          C76   1.382       .  A
C75          H87   1.082       .  S
C76          H88   1.082       .  S
C77          C78   1.372       .  A
C77          H89   1.081       .  S
C78          H90   1.082       .  S
C79          C80   1.374       .  A
C79          H91   1.081       .  S
C80          H92   1.082       .  S
C84          C98   1.490   1_554  S
N95          N96   1.320       .  A
N95          C99   1.357   1_556  A
N95        Cu103   2.118       .  S
N96          C97   1.338       .  A
N96        Cu102   2.049       .  S
C97          C98   1.377       .  A
C97         H100   1.082       .  S
C98          C99   1.397   1_556  A
C99         H101   1.082       .  S
Cu102       N105   2.042       .  S
Cu103       N113   2.120       .  S
Cu104       N106   2.056       .  S
Cu104       N112   2.057       .  S
N105        N106   1.317       .  A
N105        C109   1.332       .  A
N106        C107   1.352       .  A
C107        C108   1.385       .  A
C107        H110   1.082       .  S
C108        C109   1.380       .  A
C108        C390   1.465       .  S
C109        H111   1.083       .  S
N112        N113   1.324       .  A
N112        C116   1.341       .  A
N113        C114   1.348   1_556  A
C114        C115   1.393   1_554  A
C114        H117   1.082       .  S
C115        C116   1.380       .  A
C115        C531   1.471   1_556  S
C116        H118   1.083       .  S
N119        C124   1.355       .  A
N119        C123   1.357       .  A
N119        H151   1.040   1_556  S
N120        C127   1.348       .  A
N120        C128   1.354       .  A
N121        C126   1.350       .  A
N121        C125   1.357       .  A
N121        H152   1.037       .  S
N122        C129   1.355       .  A
N122        C130   1.356       .  A
C123        C131   1.388       .  A
C123        C139   1.419   1_556  A
C124        C140   1.418       .  A
C124        C132   1.387       .  A
C125        C133   1.388       .  A
C125        C142   1.420       .  A
C126        C141   1.416   1_554  A
C126        C134   1.387       .  A
C127        C139   1.414       .  A
C127        C135   1.388       .  A
C128        C142   1.416       .  A
C128        C136   1.386       .  A
C129        C137   1.386       .  A
C129        C140   1.420       .  A
C130        C138   1.386       .  A
C130        C141   1.420       .  A
C131        C132   1.376       .  A
C131        H143   1.081       .  S
C132        H144   1.082       .  S
C133        C134   1.374       .  A
C133        H145   1.081       .  S
C134        H146   1.082       .  S
C135        C136   1.372       .  A
C135        H147   1.083       .  S
C136        H148   1.082       .  S
C137        C138   1.379       .  A
C137        H149   1.082       .  S
C138        H150   1.082       .  S
C139        C180   1.485       .  S
C141        C156   1.487   1_556  S
N153        N154   1.320       .  A
N153        C157   1.357   1_554  A
N153       Cu161   2.114       .  S
N154        C155   1.337       .  A
N154       Cu160   2.045       .  S
C155        C156   1.377       .  A
C155        H158   1.082       .  S
C156        C157   1.395   1_554  A
C157        H159   1.082       .  S
Cu160       N163   2.039       .  S
Cu161       N171   2.118       .  S
Cu162       N164   2.061       .  S
Cu162       N170   2.062       .  S
N163        N164   1.317       .  A
N163        C167   1.333       .  A
N164        C165   1.352       .  A
C165        C166   1.387       .  A
C165        H168   1.082       .  S
C166        C167   1.378       .  A
C166        C213   1.466       .  S
C167        H169   1.082       .  S
N170        N171   1.325       .  A
N170        C174   1.340       .  A
N171        C172   1.348   1_554  A
C172        C173   1.393       .  A
C172        H175   1.082       .  S
C173        C174   1.380   1_556  A
C173        C647   1.470   1_545  S
C174        H176   1.083       .  S
N177        N178   1.322       .  A
N177        C181   1.353       .  A
N177       Cu185   2.095   1_554  S
N178        C179   1.334       .  A
N178       Cu184   2.044       .  S
C179        C180   1.375       .  A
C179        H182   1.082       .  S
C180        C181   1.391       .  A
C181        H183   1.082   1_554  S
Cu184       N187   2.043   1_554  S
Cu185       N195   2.096       .  S
Cu186       N188   2.056       .  S
Cu186       N194   2.059       .  S
N187        N188   1.315       .  A
N187        C191   1.342       .  A
N188        C189   1.337       .  A
C189        C190   1.386       .  A
C189        H192   1.083       .  S
C190        C191   1.385       .  A
C190        C391   1.461       .  S
C191        H193   1.082       .  S
N194        N195   1.321       .  A
N194        C198   1.337       .  A
N195        C196   1.349       .  A
C196        C197   1.393       .  A
C196        H199   1.082       .  S
C197        C198   1.381       .  A
C197        C671   1.468       .  S
C198        H200   1.083       .  S
O201       Cu209   1.970       .  S
O201        C211   1.272       .  A
O202       Cu209   1.970       .  S
O202        C212   1.273       .  A
O203       Cu209   2.049       .  S
O203        C213   1.282       .  A
O204       Cu209   2.049       .  S
O204        C214   1.282       .  A
O205       Cu210   1.949       .  S
O205        C214   1.271       .  A
O206       Cu210   1.951       .  S
O206        C213   1.271       .  A
O207       Cu210   2.014       .  S
O207        C212   1.279       .  A
O208       Cu210   2.015       .  S
O208        C211   1.279       .  A
Cu209      Cu210   2.374       .  S
C211        C344   1.459       .  S
C214        C228   1.466       .  S
N215        N216   1.320       .  A
N215        C219   1.356       .  A
N215       Cu223   2.109       .  S
N216        C217   1.337       .  A
N216       Cu222   2.045       .  S
C217        C218   1.377       .  A
C217        H220   1.082       .  S
C218        C219   1.395       .  A
C218        C283   1.485       .  S
C219        H221   1.082       .  S
Cu222       N225   2.037       .  S
Cu223       N233   2.113       .  S
Cu224       N226   2.063       .  S
Cu224       N232   2.063       .  S
N225        N226   1.317       .  A
N225        C229   1.332       .  A
N226        C227   1.353       .  A
C227        C228   1.387       .  A
C227        H230   1.082       .  S
C228        C229   1.378       .  A
C229        H231   1.082       .  S
N232        N233   1.324       .  A
N232        C236   1.340       .  A
N233        C234   1.347       .  A
C234        C235   1.393       .  A
C234        H237   1.082       .  S
C235        C236   1.381       .  A
C235        C449   1.469   1_545  S
C236        H238   1.083       .  S
N239        N240   1.323       .  A
N239        C243   1.353       .  A
N239       Cu247   2.095       .  S
N240        C241   1.334       .  A
N240       Cu246   2.046       .  S
C241        C242   1.376       .  A
C241        H244   1.082       .  S
C242        C243   1.391       .  A
C242        C285   1.485       .  S
C243        H245   1.082       .  S
Cu246       N249   2.045       .  S
Cu247       N257   2.096       .  S
Cu248       N250   2.058       .  S
Cu248       N256   2.060       .  S
N249        N250   1.316       .  A
N249        C253   1.342       .  A
N250        C251   1.338       .  A
C251        C252   1.386       .  A
C251        H254   1.083       .  S
C252        C253   1.385       .  A
C252        C392   1.462       .  S
C253        H255   1.082       .  S
N256        N257   1.322       .  A
N256        C260   1.337       .  A
N257        C258   1.350       .  A
C258        C259   1.393       .  A
C258        H261   1.082       .  S
C259        C260   1.380       .  A
C259        C507   1.468       .  S
C260        H262   1.083       .  S
N263        C268   1.357       .  A
N263        C267   1.350       .  A
N263        H295   1.037       .  S
N264        C271   1.356       .  A
N264        C272   1.355       .  A
N265        C270   1.356       .  A
N265        C269   1.356       .  A
N265        H296   1.040       .  S
N266        C273   1.354       .  A
N266        C274   1.348       .  A
C267        C275   1.388       .  A
C267        C283   1.416       .  A
C268        C284   1.419       .  A
C268        C276   1.388       .  A
C269        C277   1.387       .  A
C269        C286   1.417       .  A
C270        C285   1.419       .  A
C270        C278   1.388       .  A
C271        C283   1.420       .  A
C271        C279   1.386       .  A
C272        C286   1.419       .  A
C272        C280   1.386       .  A
C273        C281   1.386       .  A
C273        C284   1.416       .  A
C274        C282   1.388       .  A
C274        C285   1.414       .  A
C275        C276   1.374       .  A
C275        H287   1.082       .  S
C276        H288   1.081       .  S
C277        C278   1.375       .  A
C277        H289   1.082       .  S
C278        H290   1.081       .  S
C279        C280   1.379       .  A
C279        H291   1.082       .  S
C280        H292   1.082       .  S
C281        C282   1.372       .  A
C281        H293   1.082       .  S
C282        H294   1.083       .  S
N297        C302   1.351       .  A
N297        C301   1.358       .  A
N297        H329   1.039       .  S
N298        C305   1.354       .  A
N298        C306   1.350       .  A
N299        C304   1.357       .  A
N299        C303   1.358       .  A
N299        H330   1.039       .  S
N300        C307   1.355       .  A
N300        C308   1.354       .  A
C301        C309   1.388       .  A
C301        C317   1.421       .  A
C302        C318   1.416       .  A
C302        C310   1.387       .  A
C303        C311   1.388       .  A
C303        C320   1.423       .  A
C304        C319   1.421       .  A
C304        C312   1.386       .  A
C305        C317   1.418       .  A
C305        C313   1.387       .  A
C306        C320   1.416       .  A
C306        C314   1.387       .  A
C307        C315   1.387       .  A
C307        C318   1.417       .  A
C308        C316   1.386       .  A
C308        C319   1.416       .  A
C309        C310   1.374       .  A
C309        H321   1.081       .  S
C310        H322   1.083       .  S
C311        C312   1.382       .  A
C311        H323   1.082       .  S
C312        H324   1.082       .  S
C313        C314   1.371       .  A
C313        H325   1.081       .  S
C314        H326   1.082       .  S
C315        C316   1.374       .  A
C315        H327   1.081       .  S
C316        H328   1.082       .  S
C318        C334   1.486       .  S
C320        C358   1.489       .  S
N331        N332   1.322       .  A
N331        C335   1.354       .  A
N331       Cu339   2.103       .  S
N332        C333   1.334       .  A
N332       Cu338   2.041       .  S
C333        C334   1.375       .  A
C333        H336   1.082       .  S
C334        C335   1.393       .  A
C335        H337   1.082       .  S
Cu338       N341   2.041       .  S
Cu339       N349   2.104       .  S
Cu340       N342   2.053       .  S
Cu340       N348   2.054       .  S
N341        N342   1.315       .  A
N341        C345   1.343       .  A
N342        C343   1.336       .  A
C343        C344   1.385       .  A
C343        H346   1.083       .  S
C344        C345   1.384       .  A
C345        H347   1.082       .  S
N348        N349   1.321       .  A
N348        C352   1.337       .  A
N349        C350   1.350       .  A
C350        C351   1.394       .  A
C350        H353   1.082       .  S
C351        C352   1.380       .  A
C351        C733   1.470   1_545  S
C352        H354   1.083       .  S
N355        N356   1.321       .  A
N355        C359   1.357       .  A
N355       Cu363   2.120       .  S
N356        C357   1.338       .  A
N356       Cu362   2.050       .  S
C357        C358   1.377       .  A
C357        H360   1.082       .  S
C358        C359   1.397       .  A
C359        H361   1.082       .  S
Cu362       N365   2.044       .  S
Cu363       N373   2.123       .  S
Cu364       N366   2.057       .  S
Cu364       N372   2.059       .  S
N365        N366   1.317       .  A
N365        C369   1.332       .  A
N366        C367   1.352       .  A
C367        C368   1.386       .  A
C367        H370   1.082       .  S
C368        C369   1.380       .  A
C368        C389   1.466       .  S
C369        H371   1.083       .  S
N372        N373   1.325       .  A
N372        C376   1.340       .  A
N373        C374   1.349       .  A
C374        C375   1.395       .  A
C374        H377   1.082       .  S
C375        C376   1.379       .  A
C375        C709   1.472       .  S
C376        H378   1.083       .  S
O379       Cu387   1.937       .  S
O379        C389   1.269       .  A
O380       Cu387   1.937   1_455  S
O380        C390   1.269       .  A
O381       Cu387   2.009       .  S
O381        C391   1.279       .  A
O382       Cu387   2.009       .  S
O382        C392   1.279   1_655  A
O383       Cu388   1.976       .  S
O383        C392   1.274   1_655  A
O384       Cu388   1.976       .  S
O384        C391   1.273       .  A
O385       Cu388   2.055   1_455  S
O385        C390   1.283       .  A
O386       Cu388   2.055       .  S
O386        C389   1.283       .  A
Cu387      Cu388   2.374       .  S
C393        C394   1.421       .  A
C393        C398   1.424       .  A
C393        C402   1.527       .  S
C394        C395   1.408       .  A
C394        H399   1.078       .  S
C395        C396   1.397       .  A
C395        C476   1.494       .  S
C396        C397   1.394       .  A
C396        H400   1.084       .  S
C397        C398   1.408       .  A
C397        C581   1.491       .  S
C398        H401   1.078       .  S
C402        C403   1.424       .  A
C402        C407   1.422       .  A
C403        C404   1.408       .  A
C403        H408   1.078       .  S
C404        C405   1.394       .  A
C404        C759   1.490       .  S
C405        C406   1.396       .  A
C405        H409   1.085       .  S
C406        C407   1.409       .  A
C406        C616   1.494       .  S
C407        H410   1.078       .  S
C411        C412   1.423       .  A
C411        C416   1.426       .  A
C411        C420   1.532   1_455  S
C412        C413   1.411       .  A
C412        H417   1.078       .  S
C413        C414   1.398       .  A
C413        C579   1.499       .  S
C414        C415   1.395       .  A
C414        H418   1.084       .  S
C415        C416   1.410       .  A
C415        C474   1.494       .  S
C416        H419   1.078       .  S
C420        C421   1.427       .  A
C420        C425   1.423       .  A
C421        C422   1.411       .  A
C421        H426   1.078       .  S
C422        C423   1.395       .  A
C422        C614   1.495       .  S
C423        C424   1.398       .  A
C423        H427   1.084       .  S
C424        C425   1.410       .  A
C424        C757   1.498       .  S
C425        H428   1.078       .  S
N429        N430   1.323       .  A
N429        C433   1.354       .  A
N429       Cu437   2.100       .  S
N430        C431   1.334       .  A
N430       Cu436   2.042       .  S
C431        C432   1.374       .  A
C431        H434   1.082       .  S
C432        C433   1.391       .  A
C432        C473   1.484       .  S
C433        H435   1.082       .  S
Cu436       N439   2.041       .  S
Cu437       N447   2.101       .  S
Cu438       N440   2.056       .  S
Cu438       N446   2.057       .  S
N439        N440   1.315       .  A
N439        C443   1.343       .  A
N440        C441   1.337       .  A
C441        C442   1.385       .  A
C441        H444   1.083       .  S
C442        C443   1.384       .  A
C442        C784   1.460       .  S
C443        H445   1.082       .  S
N446        N447   1.322       .  A
N446        C450   1.337       .  A
N447        C448   1.350       .  A
C448        C449   1.393       .  A
C448        H451   1.082       .  S
C449        C450   1.380       .  A
C450        H452   1.083   1_565  S
N453        C458   1.355       .  A
N453        C457   1.356       .  A
N453        H485   1.040       .  S
N454        C461   1.348       .  A
N454        C462   1.353       .  A
N455        C460   1.350       .  A
N455        C459   1.357       .  A
N455        H486   1.038       .  S
N456        C463   1.355       .  A
N456        C464   1.356       .  A
C457        C465   1.387       .  A
C457        C473   1.417       .  A
C458        C474   1.418       .  A
C458        C466   1.387       .  A
C459        C467   1.388       .  A
C459        C476   1.418       .  A
C460        C475   1.415       .  A
C460        C468   1.387       .  A
C461        C473   1.413       .  A
C461        C469   1.387       .  A
C462        C476   1.415       .  A
C462        C470   1.386       .  A
C463        C471   1.386       .  A
C463        C474   1.420       .  A
C464        C472   1.386       .  A
C464        C475   1.420       .  A
C465        C466   1.376       .  A
C465        H477   1.081       .  S
C466        H478   1.082       .  S
C467        C468   1.374       .  A
C467        H479   1.081       .  S
C468        H480   1.083       .  S
C469        C470   1.371       .  A
C469        H481   1.082       .  S
C470        H482   1.082       .  S
C471        C472   1.379       .  A
C471        H483   1.082       .  S
C472        H484   1.082       .  S
C475        C490   1.487       .  S
N487        N488   1.322       .  A
N487        C491   1.356       .  A
N487       Cu495   2.107       .  S
N488        C489   1.337       .  A
N488       Cu494   2.050       .  S
C489        C490   1.377       .  A
C489        H492   1.082       .  S
C490        C491   1.393       .  A
C491        H493   1.082       .  S
Cu494       N497   2.046       .  S
Cu495       N505   2.109       .  S
Cu496       N498   2.060       .  S
Cu496       N504   2.059       .  S
N497        N498   1.317       .  A
N497        C501   1.335       .  A
N498        C499   1.352       .  A
C499        C500   1.386       .  A
C499        H502   1.082       .  S
C500        C501   1.381       .  A
C500        C687   1.469       .  S
C501        H503   1.082       .  S
N504        N505   1.323       .  A
N504        C508   1.339       .  A
N505        C506   1.348       .  A
C506        C507   1.393       .  A
C506        H509   1.082       .  S
C507        C508   1.381       .  A
C508        H510   1.083       .  S
N511        N512   1.324       .  A
N511        C515   1.354       .  A
N511       Cu519   2.103   1_556  S
N512        C513   1.334       .  A
N512       Cu518   2.042       .  S
C513        C514   1.373       .  A
C513        H516   1.082       .  S
C514        C515   1.391       .  A
C514        C582   1.483       .  S
C515        H517   1.082   1_556  S
Cu518       N521   2.040   1_556  S
Cu519       N529   2.103       .  S
Cu520       N522   2.056       .  S
Cu520       N528   2.055       .  S
N521        N522   1.315       .  A
N521        C525   1.343       .  A
N522        C523   1.337       .  A
C523        C524   1.384       .  A
C523        H526   1.083       .  S
C524        C525   1.384       .  A
C524        C685   1.458       .  S
C525        H527   1.082       .  S
N528        N529   1.321       .  A
N528        C532   1.337       .  A
N529        C530   1.351       .  A
C530        C531   1.394       .  A
C530        H533   1.082   1_554  S
C531        C532   1.379       .  A
C532        H534   1.083       .  S
N535        N536   1.322       .  A
N535        C539   1.356   1_556  A
N535       Cu543   2.111   1_556  S
N536        C537   1.337       .  A
N536       Cu542   2.047       .  S
C537        C538   1.376   1_556  A
C537        H540   1.082       .  S
C538        C539   1.393       .  A
C538        C580   1.485       .  S
C539        H541   1.082       .  S
Cu542       N545   2.041       .  S
Cu543       N553   2.114   1_554  S
Cu544       N546   2.060       .  S
Cu544       N552   2.061       .  S
N545        N546   1.317       .  A
N545        C549   1.332       .  A
N546        C547   1.353       .  A
C547        C548   1.386       .  A
C547        H550   1.082       .  S
C548        C549   1.380       .  A
C548        C782   1.466       .  S
C549        H551   1.083       .  S
N552        N553   1.323       .  A
N552        C556   1.340       .  A
N553        C554   1.348   1_556  A
C554        C555   1.395       .  A
C554        H557   1.082       .  S
C555        C556   1.381   1_554  A
C556        H558   1.083   1_565  S
N559        C564   1.350       .  A
N559        C563   1.358       .  A
N559        H591   1.037       .  S
N560        C567   1.354       .  A
N560        C568   1.349       .  A
N561        C566   1.355       .  A
N561        C565   1.356       .  A
N561        H592   1.040       .  S
N562        C569   1.355       .  A
N562        C570   1.355       .  A
C563        C571   1.388       .  A
C563        C579   1.420       .  A
C564        C580   1.415   1_556  A
C564        C572   1.386       .  A
C565        C573   1.388       .  A
C565        C582   1.417   1_554  A
C566        C581   1.416       .  A
C566        C574   1.387       .  A
C567        C579   1.417       .  A
C567        C575   1.386       .  A
C568        C582   1.414       .  A
C568        C576   1.387       .  A
C569        C577   1.386       .  A
C569        C580   1.418       .  A
C570        C578   1.386       .  A
C570        C581   1.418       .  A
C571        C572   1.374       .  A
C571        H583   1.080       .  S
C572        H584   1.083       .  S
C573        C574   1.377       .  A
C573        H585   1.082       .  S
C574        H586   1.082       .  S
C575        C576   1.371       .  A
C575        H587   1.082       .  S
C576        H588   1.083       .  S
C577        C578   1.378       .  A
C577        H589   1.082       .  S
C578        H590   1.082       .  S
N593        C598   1.355       .  A
N593        C597   1.356       .  A
N593        H625   1.040       .  S
N594        C601   1.349       .  A
N594        C602   1.353       .  A
N595        C600   1.350       .  A
N595        C599   1.356       .  A
N595        H626   1.038       .  S
N596        C603   1.356       .  A
N596        C604   1.357       .  A
C597        C605   1.387       .  A
C597        C613   1.418   1_556  A
C598        C614   1.418       .  A
C598        C606   1.387       .  A
C599        C607   1.387       .  A
C599        C616   1.418       .  A
C600        C615   1.416   1_554  A
C600        C608   1.387       .  A
C601        C613   1.413       .  A
C601        C609   1.387       .  A
C602        C616   1.415       .  A
C602        C610   1.386       .  A
C603        C611   1.386       .  A
C603        C614   1.421       .  A
C604        C612   1.385       .  A
C604        C615   1.421       .  A
C605        C606   1.377       .  A
C605        H617   1.081       .  S
C606        H618   1.082       .  S
C607        C608   1.374       .  A
C607        H619   1.081       .  S
C608        H620   1.083       .  S
C609        C610   1.371       .  A
C609        H621   1.082       .  S
C610        H622   1.082       .  S
C611        C612   1.379       .  A
C611        H623   1.082       .  S
C612        H624   1.082       .  S
C613        C630   1.485       .  S
C615        C654   1.488   1_556  S
N627        N628   1.323       .  A
N627        C631   1.354       .  A
N627       Cu635   2.101   1_554  S
N628        C629   1.334       .  A
N628       Cu634   2.042       .  S
C629        C630   1.375       .  A
C629        H632   1.082       .  S
C630        C631   1.392       .  A
C631        H633   1.082   1_554  S
Cu634       N637   2.041   1_554  S
Cu635       N645   2.102       .  S
Cu636       N638   2.056       .  S
Cu636       N644   2.057       .  S
N637        N638   1.315       .  A
N637        C641   1.343       .  A
N638        C639   1.337       .  A
C639        C640   1.385       .  A
C639        H642   1.083       .  S
C640        C641   1.384       .  A
C640        C783   1.459       .  S
C641        H643   1.082       .  S
N644        N645   1.322       .  A
N644        C648   1.337       .  A
N645        C646   1.350       .  A
C646        C647   1.394       .  A
C646        H649   1.082   1_556  S
C647        C648   1.380       .  A
C648        H650   1.083   1_565  S
N651        N652   1.322       .  A
N651        C655   1.356   1_554  A
N651       Cu659   2.110   1_554  S
N652        C653   1.337       .  A
N652       Cu658   2.050       .  S
C653        C654   1.377       .  A
C653        H656   1.082       .  S
C654        C655   1.394   1_554  A
C655        H657   1.082       .  S
Cu658       N661   2.045       .  S
Cu659       N669   2.113       .  S
Cu660       N662   2.062       .  S
Cu660       N668   2.062       .  S
N661        N662   1.316       .  A
N661        C665   1.334       .  A
N662        C663   1.353       .  A
C663        C664   1.387       .  A
C663        H666   1.082       .  S
C664        C665   1.381       .  A
C664        C688   1.469       .  S
C665        H667   1.082       .  S
N668        N669   1.324   1_554  A
N668        C672   1.339       .  A
N669        C670   1.348       .  A
C670        C671   1.393       .  A
C670        H673   1.082       .  S
C671        C672   1.380   1_556  A
C672        H674   1.083       .  S
O675       Cu683   2.010   1_455  S
O675        C685   1.279       .  A
O676       Cu683   2.011       .  S
O676        C686   1.279       .  A
O677       Cu683   1.953   1_455  S
O677        C687   1.271       .  A
O678       Cu683   1.950       .  S
O678        C688   1.270       .  A
O679       Cu684   2.056       .  S
O679        C688   1.283       .  A
O680       Cu684   2.055   1_455  S
O680        C687   1.283       .  A
O681       Cu684   1.971       .  S
O681        C686   1.273       .  A
O682       Cu684   1.973   1_455  S
O682        C685   1.273       .  A
Cu683      Cu684   2.375       .  S
C686        C702   1.457       .  S
N689        N690   1.324       .  A
N689        C693   1.355       .  A
N689       Cu697   2.108       .  S
N690        C691   1.333       .  A
N690       Cu696   2.041       .  S
C691        C692   1.373       .  A
C691        H694   1.082       .  S
C692        C693   1.393       .  A
C692        C760   1.485       .  S
C693        H695   1.082       .  S
Cu696       N699   2.039       .  S
Cu697       N707   2.107       .  S
Cu698       N700   2.055       .  S
Cu698       N706   2.054       .  S
N699        N700   1.315       .  A
N699        C703   1.344       .  A
N700        C701   1.336       .  A
C701        C702   1.384       .  A
C701        H704   1.083       .  S
C702        C703   1.384       .  A
C703        H705   1.082       .  S
N706        N707   1.321       .  A
N706        C710   1.338       .  A
N707        C708   1.351       .  A
C708        C709   1.396       .  A
C708        H711   1.082       .  S
C709        C710   1.379       .  A
C710        H712   1.083       .  S
N713        N714   1.321       .  A
N713        C717   1.356       .  A
N713       Cu721   2.108       .  S
N714        C715   1.336       .  A
N714       Cu720   2.048       .  S
C715        C716   1.375       .  A
C715        H718   1.082       .  S
C716        C717   1.393       .  A
C716        C758   1.484       .  S
C717        H719   1.082       .  S
Cu720       N723   2.044       .  S
Cu721       N731   2.112       .  S
Cu722       N724   2.062       .  S
Cu722       N730   2.061       .  S
N723        N724   1.317       .  A
N723        C727   1.332       .  A
N724        C725   1.353       .  A
C725        C726   1.387       .  A
C725        H728   1.082       .  S
C726        C727   1.381       .  A
C726        C781   1.467       .  S
C727        H729   1.083       .  S
N730        N731   1.324       .  A
N730        C734   1.339       .  A
N731        C732   1.348       .  A
C732        C733   1.394       .  A
C732        H735   1.082       .  S
C733        C734   1.380       .  A
C734        H736   1.083   1_565  S
N737        C742   1.350       .  A
N737        C741   1.357       .  A
N737        H769   1.037       .  S
N738        C745   1.354       .  A
N738        C746   1.349       .  A
N739        C744   1.355       .  A
N739        C743   1.356       .  A
N739        H770   1.040       .  S
N740        C747   1.355       .  A
N740        C748   1.354       .  A
C741        C749   1.389       .  A
C741        C757   1.421       .  A
C742        C758   1.415       .  A
C742        C750   1.386       .  A
C743        C751   1.388       .  A
C743        C760   1.418       .  A
C744        C759   1.416       .  A
C744        C752   1.386       .  A
C745        C757   1.418       .  A
C745        C753   1.387       .  A
C746        C760   1.415       .  A
C746        C754   1.387       .  A
C747        C755   1.386       .  A
C747        C758   1.417       .  A
C748        C756   1.386       .  A
C748        C759   1.417       .  A
C749        C750   1.375       .  A
C749        H761   1.080       .  S
C750        H762   1.083       .  S
C751        C752   1.377       .  A
C751        H763   1.081       .  S
C752        H764   1.082       .  S
C753        C754   1.372       .  A
C753        H765   1.082       .  S
C754        H766   1.083       .  S
C755        C756   1.377       .  A
C755        H767   1.082       .  S
C756        H768   1.082       .  S
O771       Cu779   2.058       .  S
O771        C781   1.284       .  A
O772       Cu779   2.056       .  S
O772        C782   1.283       .  A
O773       Cu779   1.971       .  S
O773        C783   1.273       .  A
O774       Cu779   1.973       .  S
O774        C784   1.273       .  A
O775       Cu780   2.014       .  S
O775        C784   1.280       .  A
O776       Cu780   2.012       .  S
O776        C783   1.279       .  A
O777       Cu780   1.938       .  S
O777        C782   1.269       .  A
O778       Cu780   1.940       .  S
O778        C781   1.269       .  A
Cu779      Cu780   2.375       .  S
