geometry optimzed in LAMMPS
_audit_creation_date              2020-11-30 
_audit_creation_method            'lammps2cif' 
_symmetry_space_group_name_H-M    'P1' 
_symmetry_Int_Tables_number       1 
_symmetry_cell_setting            triclinic 
loop_ 
_symmetry_equiv_pos_as_xyz 
  x,y,z 
_cell_length_a                    41.38708725 
_cell_length_b                    41.805706794730064 
_cell_length_c                    31.37458788097403 
_cell_angle_alpha                 90.00245705948956 
_cell_angle_beta                  89.99815462251216 
_cell_angle_gamma                 121.27119865122035 
loop_ 
_atom_site_label 
_atom_site_type_symbol 
_atom_site_fract_x 
_atom_site_fract_y 
_atom_site_fract_z 
_atom_site_charge 
C1          C  0.37386459  0.19537621  0.13580843     0.81100
N2          N  0.37521645  0.17892130  0.09910628    -0.77200
C3          C  0.38428651  0.15208090  0.10013017     0.83600
N4          N  0.39200929  0.14168237  0.13795612    -0.77100
C5          C  0.39071796  0.15809215  0.17476514     0.83700
N6          N  0.38156709  0.18494458  0.17369595    -0.78800
C7          C  0.23552404  0.78784068  0.35278475     0.81100
N8          N  0.21986385  0.76831022  0.31633779    -0.77200
C9          C  0.19059411  0.73231436  0.31825300     0.83600
N10         N  0.17676174  0.71597348  0.35676292    -0.77100
C11         C  0.19234811  0.73542419  0.39332428     0.83700
N12         N  0.22166207  0.77141702  0.39126480    -0.78800
C13         C  0.69883269  0.10907413  0.10415928     0.81100
N14         N  0.71461526  0.12878060  0.06788824    -0.77200
C15         C  0.74333519  0.16497572  0.07013480     0.83600
N16         N  0.75653635  0.18132498  0.10877333    -0.77100
C17         C  0.74083975  0.16166355  0.14518047     0.83700
N18         N  0.71202873  0.12545629  0.14280276    -0.78800
C19         C  0.55762526  0.69864306  0.38953255     0.81100
N20         N  0.55752553  0.71600390  0.35293651    -0.77200
C21         C  0.54915546  0.74339794  0.35402681     0.83600
N22         N  0.54094594  0.75343362  0.39180692    -0.77100
C23         C  0.54101858  0.73618214  0.42847181     0.83700
N24         N  0.54942993  0.70879792  0.42731838    -0.78800
C25         C  0.81165680  0.53537075  0.12611333     0.81100
N26         N  0.79570565  0.53380631  0.16463865    -0.77200
C27         C  0.75939778  0.52583818  0.16668067     0.83600
N28         N  0.73933551  0.51967378  0.13018678    -0.77100
C29         C  0.75519401  0.52116968  0.09179816     0.83700
N30         N  0.79137480  0.52915021  0.08980128    -0.78800
C31         C  0.12220604  0.35556978  0.37914454     0.81100
N32         N  0.14203958  0.36216114  0.34241597    -0.77200
C33         C  0.17875936  0.37178368  0.34371377     0.83600
N34         N  0.19556253  0.37456423  0.38182840    -0.77100
C35         C  0.17582797  0.36801466  0.41865724     0.83700
N36         N  0.13904530  0.35840038  0.41731352    -0.78800
Zr37       Zr  0.81409730  0.24020388  0.35927928     2.17500
O38         O  0.78346880  0.17218273  0.35885536    -0.50400
O39         O  0.75784829  0.24492429  0.36334780    -0.73600
O40         O  0.78783075  0.21419651  0.42904437    -0.80400
O41         O  0.82809318  0.24800708  0.23992961    -0.82100
O42         O  0.82667282  0.25609631  0.47918007    -0.77800
O43         O  0.78619522  0.21058312  0.29081750    -0.89400
O44         O  0.77876123  0.30702723  0.36576106    -0.75400
O45         O  0.83031322  0.29318832  0.40310647    -0.84900
O46         O  0.83028977  0.29009058  0.31044461    -0.84500
O47         O  0.86615584  0.25061118  0.40384113    -0.71300
O48         O  0.86687091  0.24803663  0.31813649    -0.83400
Zr49       Zr  0.95231434  0.36227553  0.35926954     2.26400
Zr50       Zr  0.88372543  0.30538062  0.44583042     2.06300
Zr51       Zr  0.88484278  0.30004646  0.27157880     2.10000
Zr52       Zr  0.84578025  0.34229834  0.35435613     1.78800
O53         O  0.92266310  0.28069080  0.23229646    -0.92200
O54         O  0.83446865  0.37463400  0.41165432    -0.40000
O55         O  0.89933166  0.35072948  0.31703842    -0.76700
O56         O  0.89834034  0.35537169  0.39758884    -0.95400
O57         O  0.93663537  0.31235212  0.40721591    -0.88700
O58         O  0.93747999  0.31029947  0.31448598    -0.91500
C59         C  0.75272118  0.27256743  0.36681979     1.02200
C60         C  0.79684694  0.21924673  0.25183150     1.15200
C61         C  0.79688704  0.22566985  0.46761050     1.06000
O62         O  0.86728949  0.32141084  0.51377209    -0.93700
O63         O  0.92719260  0.36839389  0.47467433    -0.89400
O64         O  0.96818035  0.40182753  0.42131989    -0.82600
C65         C  0.95465856  0.39882896  0.45869080     1.12600
O66         O  0.88362109  0.19101054  0.35784264    -0.95600
Zr67       Zr  0.91881054  0.25914301  0.36279677     1.88900
O68         O  0.00612853  0.35363248  0.36361788    -0.72300
O69         O  0.91629048  0.28136247  0.48739469    -0.51500
O70         O  0.92762247  0.23190462  0.42727168    -0.96200
O71         O  0.94414867  0.23794883  0.30662589    -0.53400
O72         O  0.98652383  0.29227794  0.37177644    -0.72800
C73         C  0.01219902  0.32688390  0.36957074     0.99500
O74         O  0.01402938  0.42027876  0.35562602    -0.61600
O75         O  0.87624502  0.31374468  0.19824505    -0.56400
O76         O  0.96115803  0.40090675  0.29757477    -0.93100
O77         O  0.91740458  0.36565356  0.24743925    -0.91500
O78         O  0.82191013  0.35498167  0.28963494    -0.91900
O79         O  0.87399763  0.40905782  0.34181337    -0.90700
C80         C  0.94440328  0.39706684  0.26207111     1.18400
H81         H  0.80946061  0.28477355  0.29186763     0.34300
H82         H  0.90232301  0.37795414  0.41064565     0.45200
H83         H  0.95921270  0.31562507  0.29753817     0.38700
H84         H  0.85823162  0.22933962  0.42237746     0.35200
H85         H  0.81246515  0.37608856  0.40210055     0.27000
H86         H  0.92374074  0.30620744  0.01075108     0.32900
H87         H  0.95438121  0.23875308  0.42688315     0.38800
H88         H  0.80361588  0.36181806  0.29976182     0.33300
H89         H  0.87226550  0.29214663  0.18102374     0.32200
H90         H  0.93843137  0.30187750  0.21290815     0.33800
H91         H  0.95776335  0.22767417  0.32182853     0.32800
H92         H  0.90158947  0.41939872  0.34330280     0.36800
H93         H  0.02533182  0.41989268  0.32793874     0.29500
H94         H  0.75761544  0.16262014  0.36991595     0.33800
H95         H  0.90187405  0.18318596  0.36466254     0.36600
H96         H  0.85151165  0.31215169  0.19800289     0.29200
H97         H  0.00911910  0.44101610  0.35326115     0.42100
H98         H  0.85101132  0.33143476  0.50607791     0.32200
H99         H  0.82468658  0.35649639  0.43551689     0.39800
H100        H  0.96443038  0.26099618  0.29287943     0.31600
H101        H  0.89909343  0.26805484  0.51156542     0.31700
H102        H  0.79637159  0.16635051  0.38141244     0.32000
Zr103      Zr  0.12054612  0.65314269  0.10475234     2.17500
O104        O  0.15169221  0.72116646  0.10258786    -0.50400
O105        O  0.17674954  0.64844949  0.11081810    -0.73600
O106        O  0.14483962  0.67993039  0.17543369    -0.80400
O107        O  0.10822724  0.64625981  0.98518695    -0.82100
O108        O  0.10337800  0.63974337  0.22509537    -0.77800
O109        O  0.14947380  0.68305372  0.03692269    -0.89400
O110        O  0.15697964  0.58652897  0.11124356    -0.75400
O111        O  0.10414092  0.60015363  0.14839146    -0.84900
O112        O  0.10573848  0.60342217  0.05604535    -0.84500
O113        O  0.06700950  0.64226295  0.14669373    -0.71300
O114        O  0.06829579  0.64456729  0.06174419    -0.83400
Zr115      Zr  0.98294906  0.52987575  0.10184921     2.26400
Zr116      Zr  0.04983223  0.58785575  0.18931847     2.06300
Zr117      Zr  0.05180812  0.59285286  0.01538276     2.10000
Zr118      Zr  0.08986046  0.55103788  0.09991623     1.78800
O119        O  0.01300799  0.60941017  0.97348111    -0.92200
O120        O  0.09953004  0.51866937  0.15848622    -0.40000
O121        O  0.03703336  0.54247923  0.06133326    -0.76700
O122        O  0.03647202  0.53773164  0.14191081    -0.95400
O123        O  0.99727135  0.57987195  0.14895832    -0.88700
O124        O  0.99759811  0.58121937  0.05616986    -0.91500
C125        C  0.18249645  0.62115991  0.11365563     1.02200
C126        C  0.13923433  0.67492434  0.99779003     1.15200
C127        C  0.13386674  0.66979199  0.21409097     1.06000
O128        O  0.06987328  0.57061135  0.25383984    -0.93700
O129        O  0.00493340  0.52578825  0.21875354    -0.89400
O130        O  0.96603219  0.49121780  0.16444810    -0.82600
C131        C  0.97800237  0.49512381  0.20266355     1.12600
O132        O  0.04508465  0.69947626  0.09053543    -0.95600
Zr133      Zr  0.01457413  0.63239522  0.10372031     1.88900
O134        O  0.92795445  0.53683436  0.10509608    -0.72300
O135        O  0.01338410  0.60696926  0.23150809    -0.51500
O136        O  0.00828135  0.66328006  0.16633112    -0.96200
O137        O  0.98584379  0.64837456  0.04595311    -0.53400
O138        O  0.94700426  0.59779418  0.11589020    -0.72800
C139        C  0.92149184  0.56312523  0.11280498     0.99500
O140        O  0.92363413  0.46935164  0.09941541    -0.61600
O141        O  0.06406005  0.57958281  0.94339887    -0.56400
O142        O  0.97564464  0.49179005  0.04026111    -0.93100
O143        O  0.02098241  0.52743504  0.99174062    -0.91500
O144        O  0.11302882  0.53732145  0.03524136    -0.91900
O145        O  0.06088561  0.48414433  0.08749820    -0.90700
C146        C  0.99367379  0.49595270  0.00565545     1.18400
H147        H  0.12696669  0.60903466  0.03799814     0.34300
H148        H  0.03211740  0.51537240  0.15599560     0.45200
H149        H  0.97597305  0.57506489  0.03857213     0.38700
H150        H  0.07418260  0.66357228  0.16490689     0.35200
H151        H  0.12180336  0.51725347  0.15005105     0.27000
H152        H  0.00474263  0.59005650  0.25649980     0.32900
H153        H  0.98689446  0.64312633  0.18259409     0.38800
H154        H  0.13253159  0.53208665  0.04518847     0.33300
H155        H  0.05814770  0.60865204  0.42820628     0.32200
H156        H  0.98945478  0.58940563  0.46636608     0.33800
H157        H  0.97099952  0.65768038  0.06034269     0.32800
H158        H  0.03340826  0.47448366  0.08626348     0.36800
H159        H  0.91121121  0.46863775  0.07214727     0.29500
H160        H  0.17816255  0.73058000  0.11122941     0.33800
H161        H  0.02729540  0.70686529  0.10095403     0.36600
H162        H  0.08961535  0.58306194  0.94459926     0.29200
H163        H  0.93044446  0.44995793  0.09663543     0.42100
H164        H  0.09097415  0.56754733  0.24453078     0.32200
H165        H  0.10860470  0.53679385  0.18234792     0.39800
H166        H  0.96645826  0.62437240  0.03306062     0.31600
H167        H  0.03237907  0.63177145  0.24312534     0.31700
H168        H  0.14067142  0.72790359  0.12643020     0.32000
Zr169      Zr  0.40907782  0.09422236  0.38677437     2.17500
O170        O  0.36676958  0.11827338  0.38083886    -0.50400
O171        O  0.46717933  0.15471735  0.39528650    -0.73600
O172        O  0.39762679  0.11244378  0.45648159    -0.80400
O173        O  0.41957403  0.08941046  0.26692505    -0.82100
O174        O  0.38822538  0.06731273  0.50423324    -0.77800
O175        O  0.40687759  0.12024235  0.31795077    -0.89400
O176        O  0.51308053  0.14201058  0.41067157    -0.75400
O177        O  0.43734892  0.07725158  0.44147772    -0.84900
O178        O  0.45895679  0.09132927  0.35237929    -0.84500
O179        O  0.35993428  0.03480599  0.41450557    -0.71300
O180        O  0.38070520  0.04707308  0.33271826    -0.83400
Zr181      Zr  0.40892385  0.96708840  0.38049632     2.26400
Zr182      Zr  0.38965350  0.01703878  0.46759567     2.06300
Zr183      Zr  0.43049080  0.04299995  0.29963715     2.10000
Zr184      Zr  0.48716499  0.07510127  0.40773480     1.78800
O185        O  0.39487631  0.00877820  0.23666212    -0.92200
O186        O  0.51182575  0.09329556  0.47993836    -0.40000
O187        O  0.45790550  0.02691479  0.35565342    -0.76700
O188        O  0.44050918  0.01464169  0.43479927    -0.95400
O189        O  0.35917422  0.96973626  0.41435226    -0.88700
O190        O  0.38091669  0.98302554  0.32469652    -0.91500
C191        C  0.50135766  0.16456573  0.40427783     1.02200
C192        C  0.41121213  0.11358843  0.27901993     1.15200
C193        C  0.39133503  0.09850515  0.49420224     1.06000
O194        O  0.41079630  0.02654197  0.54144114    -0.93700
O195        O  0.39719138  0.96808667  0.50069242    -0.89400
O196        O  0.41129241  0.94076084  0.44719724    -0.82600
C197        C  0.40605206  0.94483884  0.48628020     1.12600
O198        O  0.29297319  0.01386707  0.34123508    -0.95600
Zr199      Zr  0.33211894  0.98796150  0.35945526     1.88900
O200        O  0.35087645  0.90973805  0.35938881    -0.72300
O201        O  0.32474918  0.98043156  0.49283966    -0.51500
O202        O  0.27750014  0.96190910  0.40670677    -0.96200
O203        O  0.30555376  0.97190063  0.28776127    -0.53400
O204        O  0.30285395  0.92081250  0.35468050    -0.72800
C205        C  0.31591946  0.89902277  0.35461565     0.99500
O206        O  0.41775399  0.91357377  0.38090758    -0.61600
O207        O  0.48374202  0.08319382  0.25329624    -0.56400
O208        O  0.45686345  0.97218221  0.33229704    -0.93100
O209        O  0.47012718  0.01680503  0.28255899    -0.91500
O210        O  0.54083723  0.10035860  0.35921527    -0.91900
O211        O  0.53297849  0.05694052  0.42415607    -0.90700
C212        C  0.47502027  0.99171100  0.29989859     1.18400
H213        H  0.47685960  0.11463278  0.33870897     0.34300
H214        H  0.45415716  0.00858587  0.45491039     0.45200
H215        H  0.37129882  0.96441062  0.30235375     0.38700
H216        H  0.34053909  0.03775089  0.42762433     0.35200
H217        H  0.49896295  0.10574001  0.49182179     0.27000
H218        H  0.32314737  0.96017328  0.01401621     0.32900
H219        H  0.27821390  0.94187507  0.42271670     0.38800
H220        H  0.53029656  0.08641193  0.33227935     0.33300
H221        H  0.47240424  0.08239670  0.22524163     0.32200
H222        H  0.41431575  0.01479074  0.21459681     0.33800
H223        H  0.30862863  0.95102574  0.27837817     0.32800
H224        H  0.52062799  0.03051531  0.41486198     0.36800
H225        H  0.41345437  0.90397330  0.35130618     0.29500
H226        H  0.38024742  0.14316372  0.39469978     0.33800
H227        H  0.26709083  0.99202863  0.33732161     0.34800
H228        H  0.49361923  0.10896929  0.26384068     0.29200
H229        H  0.44490578  0.92353222  0.38654895     0.42100
H230        H  0.43874239  0.04091411  0.53964596     0.32200
H231        H  0.50092432  0.06946576  0.49589345     0.39800
H232        H  0.32355151  0.99337467  0.26990963     0.31600
H233        H  0.32557633  0.99004892  0.52190046     0.31700
H234        H  0.34527321  0.10235546  0.39998644     0.32000
Zr235      Zr  0.52800017  0.80372913  0.14182960     2.17500
O236        O  0.56745990  0.77629531  0.13724337    -0.50400
O237        O  0.46923449  0.74396378  0.15096724    -0.73600
O238        O  0.53964116  0.78609020  0.21198062    -0.80400
O239        O  0.51470296  0.80682238  0.02177876    -0.82100
O240        O  0.54962629  0.83160523  0.25937269    -0.77800
O241        O  0.53018053  0.77794142  0.07248973    -0.89400
O242        O  0.42415309  0.75725699  0.16861256    -0.75400
O243        O  0.50176952  0.82230859  0.19732593    -0.84900
O244        O  0.47745236  0.80655616  0.10896901    -0.84500
O245        O  0.57835353  0.86346520  0.16752689    -0.71300
O246        O  0.55550851  0.85001756  0.08670252    -0.83400
Zr247      Zr  0.52792393  0.93058278  0.13493049     2.26400
Zr248      Zr  0.55074301  0.88281268  0.22145869     2.06300
Zr249      Zr  0.50509555  0.85380935  0.05498497     2.10000
Zr250      Zr  0.45107150  0.82409956  0.16524602     1.78800
O251        O  0.54072606  0.88575399  0.99105086    -0.92200
O252        O  0.42927502  0.80695301  0.23854520    -0.40000
O253        O  0.47835890  0.87071359  0.11123453    -0.76700
O254        O  0.49854686  0.88443307  0.19084089    -0.95400
O255        O  0.57905097  0.92903958  0.16692776    -0.88700
O256        O  0.55484657  0.91398946  0.07861171    -0.91500
C257        C  0.43539868  0.73450276  0.16116541     1.02200
C258        C  0.52430137  0.78352634  0.03364454     1.15200
C259        C  0.54586967  0.80005085  0.24970321     1.06000
O260        O  0.54449091  0.88064607  0.29875996    -0.93700
O261        O  0.54028528  0.92974531  0.25525082    -0.89400
O262        O  0.52902632  0.95897632  0.20140964    -0.82600
C263        C  0.53272774  0.95388809  0.24062120     1.12600
O264        O  0.64387281  0.88422848  0.09186918    -0.95600
Zr265      Zr  0.60460253  0.90964012  0.11161547     1.88900
O266        O  0.58420240  0.98713925  0.10960583    -0.72300
O267        O  0.61804361  0.92169741  0.23633038    -0.51500
O268        O  0.66028106  0.93484925  0.15709690    -0.96200
O269        O  0.62921840  0.92610455  0.03908171    -0.53400
O270        O  0.63279277  0.97670923  0.10815101    -0.72800
C271        C  0.61929322  0.99809717  0.10619901     0.99500
O272        O  0.51674297  0.98255082  0.13800829    -0.61600
O273        O  0.44990694  0.81387682  0.01104567    -0.56400
O274        O  0.47927590  0.92471321  0.08731004    -0.93100
O275        O  0.46879709  0.88274721  0.03515914    -0.91500
O276        O  0.39518463  0.80019249  0.12038125    -0.91900
O277        O  0.40753011  0.84442761  0.18466326    -0.90700
C278        C  0.46294001  0.90685768  0.05331218     1.18400
H279        H  0.45903631  0.78323516  0.09575067     0.34300
H280        H  0.48511366  0.89058100  0.21112662     0.45200
H281        H  0.56366359  0.93218454  0.05588619     0.38700
H282        H  0.59800532  0.86051820  0.17988316     0.35200
H283        H  0.43594721  0.78819506  0.24664281     0.27000
H284        H  0.62130863  0.94532522  0.24761470     0.32900
H285        H  0.67943959  0.95848219  0.14326001     0.38800
H286        H  0.40458462  0.81433684  0.09336591     0.33300
H287        H  0.45396554  0.81029153  0.48273674     0.32200
H288        H  0.52526407  0.86315281  0.46727991     0.33800
H289        H  0.62241471  0.94425375  0.02886499     0.32800
H290        H  0.42011744  0.87073072  0.17484613     0.36800
H291        H  0.52101165  0.99299712  0.10881881     0.29500
H292        H  0.55215836  0.75103450  0.14994990     0.33800
H293        H  0.66932438  0.90617017  0.08609979     0.36600
H294        H  0.44400976  0.78799437  0.01599268     0.29200
H295        H  0.48937356  0.97151116  0.14342255     0.42100
H296        H  0.51687999  0.86652977  0.30401493     0.32200
H297        H  0.44663129  0.82937404  0.25555508     0.39800
H298        H  0.61312937  0.90319543  0.02215537     0.31600
H299        H  0.62214653  0.90971870  0.26126158     0.31700
H300        H  0.58848455  0.79059532  0.15755930     0.32000
C301        C  0.64529737  0.32568502  0.39012131     0.81100
N302        N  0.60847001  0.29887856  0.39686582    -0.77200
C303        C  0.59798345  0.26225602  0.39768102     0.83600
N304        N  0.62415495  0.25247380  0.39151104    -0.77100
C305        C  0.66076866  0.27914013  0.38469770     0.83700
N306        N  0.67138420  0.31578827  0.38389733    -0.78800
C307        C  0.29342272  0.57322931  0.14256124     0.81100
N308        N  0.32967111  0.60068344  0.15055390    -0.77200
C309        C  0.33897429  0.63690615  0.15161255     0.83600
N310        N  0.31220223  0.64572726  0.14428814    -0.77100
C311        C  0.27608847  0.61830570  0.13616826     0.83700
N312        N  0.26668136  0.58202669  0.13523103    -0.78800
Zr313      Zr  0.25747577  0.38161093  0.13065148     2.17500
O314        O  0.18897058  0.34025688  0.13023809    -0.50400
O315        O  0.26202350  0.44199034  0.13388196    -0.73600
O316        O  0.23138729  0.38079973  0.20095321    -0.80400
O317        O  0.26323432  0.37458078  0.01172691    -0.82100
O318        O  0.27192975  0.38212337  0.25111026    -0.77800
O319        O  0.22698371  0.37929327  0.06299582    -0.89400
O320        O  0.32458623  0.48642202  0.13075389    -0.75400
O321        O  0.31118583  0.42101377  0.17378602    -0.84900
O322        O  0.30769328  0.41763678  0.08154584    -0.84500
O323        O  0.26851055  0.34073361  0.17424141    -0.71300
O324        O  0.26512421  0.33762231  0.08866242    -0.83400
Zr325      Zr  0.38066814  0.37171317  0.12910533     2.26400
Zr326      Zr  0.32343269  0.38074836  0.21627914     2.06300
Zr327      Zr  0.31743803  0.37422049  0.04188460     2.10000
Zr328      Zr  0.36086529  0.45668569  0.12500251     1.78800
O329        O  0.29996412  0.31893747  0.99902334    -0.92200
O330        O  0.39047330  0.50046672  0.18386515    -0.40000
O331        O  0.36870296  0.41221661  0.08744028    -0.76700
O332        O  0.37416414  0.41797545  0.16814198    -0.95400
O333        O  0.33032677  0.33545575  0.17727724    -0.88700
O334        O  0.32829944  0.33259976  0.08393151    -0.91500
C335        C  0.28970382  0.47602472  0.13365866     1.02200
C336        C  0.23467556  0.37644233  0.02396588     1.15200
C337        C  0.24181575  0.38137064  0.23970512     1.06000
O338        O  0.34226889  0.42335614  0.27664098    -0.93700
O339        O  0.38535581  0.39885057  0.24626175    -0.89400
O340        O  0.41944301  0.39447582  0.19221328    -0.82600
C341        C  0.41597121  0.40313585  0.23022956     1.12600
O342        O  0.20848272  0.26339605  0.14148823    -0.95600
Zr343      Zr  0.27700174  0.29763956  0.13234619     1.88900
O344        O  0.37337840  0.31004210  0.12829784    -0.72300
O345        O  0.30132069  0.32822189  0.26517159    -0.51500
O346        O  0.25441235  0.25302077  0.19108919    -0.96200
O347        O  0.25118097  0.25529301  0.07151595    -0.53400
O348        O  0.31132969  0.26521939  0.13394539    -0.72800
C349        C  0.34636271  0.27592981  0.13150946     0.99500
O350        O  0.44213716  0.37640125  0.12884692    -0.61600
O351        O  0.33019166  0.39893687  0.96938457    -0.56400
O352        O  0.41928800  0.40229766  0.06720087    -0.93100
O353        O  0.38399935  0.41105322  0.01853105    -0.91500
O354        O  0.37765862  0.49467526  0.06070727    -0.91900
O355        O  0.42848729  0.49779426  0.11302802    -0.90700
C356        C  0.41562073  0.41621649  0.03266843     1.18400
H357        H  0.30219113  0.43269481  0.06306781     0.34300
H358        H  0.39701043  0.43662386  0.18206707     0.45200
H359        H  0.33357567  0.31685561  0.06642930     0.38700
H360        H  0.24709207  0.32630126  0.19281110     0.35200
H361        H  0.39326834  0.52415472  0.17352516     0.27000
H362        H  0.30641838  0.33974154  0.29385701     0.32900
H363        H  0.24501399  0.22832371  0.17752926     0.38800
H364        H  0.37822083  0.47854298  0.03796662     0.33300
H365        H  0.31607701  0.38680116  0.45329011     0.32200
H366        H  0.33031604  0.32805439  0.48535140     0.33800
H367        H  0.24014135  0.22993134  0.08387201     0.32800
H368        H  0.43862210  0.48092212  0.11338224     0.36800
H369        H  0.44312419  0.36397473  0.10242660     0.29500
H370        H  0.17887981  0.35532190  0.14199681     0.33800
H371        H  0.19906804  0.23750682  0.13173179     0.36600
H372        H  0.32718382  0.42094273  0.97029957     0.29200
H373        H  0.46157033  0.40321825  0.12497472     0.42100
H374        H  0.34666864  0.44711137  0.26439871     0.32200
H375        H  0.37056896  0.49155040  0.20595385     0.39800
H376        H  0.27345783  0.25902114  0.05545210     0.31600
H377        H  0.27343215  0.31439261  0.26256499     0.31700
H378        H  0.18359845  0.32121173  0.15234912     0.32000
Zr379      Zr  0.67940406  0.51721496  0.37984956     2.17500
O380        O  0.74758357  0.56087343  0.37839466    -0.50400
O381        O  0.67754180  0.45789354  0.38210054    -0.73600
O382        O  0.70670143  0.51968245  0.44998154    -0.80400
O383        O  0.66923847  0.52037894  0.26042657    -0.82100
O384        O  0.66681064  0.51900937  0.50063744    -0.77800
O385        O  0.70925940  0.52150035  0.31111452    -0.89400
O386        O  0.61534811  0.41219963  0.38132954    -0.75400
O387        O  0.62725251  0.47817271  0.42514086    -0.84900
O388        O  0.62820709  0.47866210  0.33290291    -0.84500
O389        O  0.66769239  0.55809239  0.42239502    -0.71300
O390        O  0.66813607  0.55820492  0.33691459    -0.83400
Zr391      Zr  0.55306364  0.52229466  0.38038387     2.26400
Zr392      Zr  0.61394450  0.51829992  0.46651308     2.06300
Zr393      Zr  0.61476455  0.51913140  0.29238800     2.10000
Zr394      Zr  0.57681541  0.43962642  0.37852341     1.78800
O395        O  0.62864920  0.57326822  0.24924236    -0.92200
O396        O  0.55341845  0.39841100  0.44033024    -0.40000
O397        O  0.56522230  0.48123628  0.33986375    -0.76700
O398        O  0.56274282  0.47838256  0.42029187    -0.95400
O399        O  0.60423317  0.56120917  0.42635935    -0.88700
O400        O  0.60355556  0.56114474  0.33323980    -0.91500
C401        C  0.65050677  0.42350065  0.38264831     1.02200
C402        C  0.69964332  0.52173241  0.27217781     1.15200
C403        C  0.69688676  0.51983461  0.48887417     1.06000
O404        O  0.60052701  0.48079013  0.53072945    -0.93700
O405        O  0.55115895  0.49678334  0.49732246    -0.89400
O406        O  0.51585880  0.50027727  0.44413292    -0.82600
C407        C  0.52004379  0.49185717  0.48187467     1.12600
O408        O  0.72440413  0.64074682  0.37773676    -0.95600
Zr409      Zr  0.65606357  0.59856360  0.37944986     1.88900
O410        O  0.55908358  0.58370029  0.38065263    -0.72300
O411        O  0.63439444  0.57380019  0.51002462    -0.51500
O412        O  0.68402109  0.64094582  0.43975837    -0.96200
O413        O  0.67632439  0.63930363  0.31702827    -0.53400
O414        O  0.62077707  0.62969921  0.38546230    -0.72800
C415        C  0.58550922  0.61812879  0.38408310     0.99500
O416        O  0.49036574  0.51470445  0.38363872    -0.61600
O417        O  0.60009021  0.49188271  0.22109216    -0.56400
O418        O  0.51293789  0.49023036  0.31968946    -0.93100
O419        O  0.54751276  0.47935195  0.27220297    -0.91500
O420        O  0.55684736  0.39839381  0.31669814    -0.91900
O421        O  0.50880348  0.39637541  0.37371055    -0.90700
C422        C  0.51601963  0.47462167  0.28622682     1.18400
H423        H  0.63408898  0.46378847  0.31461447     0.34300
H424        H  0.54046271  0.45940680  0.43478064     0.45200
H425        H  0.59685387  0.57581727  0.31572410     0.38700
H426        H  0.68940809  0.57359181  0.44016234     0.35200
H427        H  0.54945396  0.37424983  0.42997635     0.27000
H428        H  0.60851169  0.56980780  0.01590990     0.32900
H429        H  0.66246807  0.63495744  0.45869547     0.38800
H430        H  0.56914946  0.41516761  0.29201715     0.33300
H431        H  0.61956704  0.51115648  0.20210202     0.32200
H432        H  0.60676383  0.56399339  0.22974841     0.33800
H433        H  0.68728442  0.66488252  0.32873010     0.32800
H434        H  0.49928920  0.41036018  0.35793700     0.36800
H435        H  0.48824617  0.52742571  0.35811640     0.29500
H436        H  0.75881487  0.54569953  0.38590977     0.33800
H437        H  0.73378903  0.62777950  0.35979334     0.36600
H438        H  0.60575794  0.47159755  0.22189817     0.29200
H439        H  0.47161882  0.48776799  0.37917793     0.42100
H440        H  0.58499583  0.45458353  0.52074806     0.32200
H441        H  0.57542919  0.40812905  0.45970313     0.39800
H442        H  0.65278973  0.63430345  0.30285784     0.31600
H443        H  0.65012470  0.57219066  0.53269630     0.31700
H444        H  0.75306433  0.57768449  0.40310598     0.32000
C445        C  0.45052927  0.42441278  0.25324465    -0.12300
C446        C  0.48127381  0.44716593  0.26679271    -0.13900
C447        C  0.45013209  0.44310185  0.01273921    -0.12300
C448        C  0.48558783  0.47012744  0.50477672    -0.13900
C449        C  0.28215379  0.50558393  0.13717768    -0.12300
C450        C  0.28408365  0.53520427  0.14000122    -0.13900
C451        C  0.65606246  0.36426466  0.38783274    -0.12300
C452        C  0.65884361  0.39435155  0.38533019    -0.13900
C453        C  0.40668236  0.69570861  0.16166176    -0.12300
C454        C  0.37721494  0.66640502  0.15859756    -0.13900
C455        C  0.55921500  0.23316525  0.40314602    -0.12300
C456        C  0.52978168  0.20360829  0.40516920    -0.13900
C457        C  0.41543658  0.92451913  0.51504767    -0.12300
C458        C  0.43617831  0.91474886  0.03534220    -0.13900
C459        C  0.52189078  0.97337819  0.26875165    -0.12300
C460        C  0.50314894  0.98499405  0.28351381    -0.13900
C461        C  0.24768505  0.62729112  0.12793722    -0.12300
C462        C  0.21999611  0.62890526  0.12087742    -0.13900
C463        C  0.71539956  0.26568903  0.37263007    -0.12300
C464        C  0.68840431  0.26882653  0.37809733    -0.13900
C465        C  0.96710377  0.43356631  0.47997270    -0.12300
C466        C  0.98503536  0.46243625  0.98439190    -0.13900
C467        C  0.96362709  0.46120518  0.22608634    -0.12300
C468        C  0.95403634  0.43096928  0.24064989    -0.13900
C469        C  0.05071965  0.33654758  0.37412642    -0.12300
C470        C  0.08327274  0.34509673  0.37729976    -0.13900
C471        C  0.21167600  0.37177621  0.49000389    -0.12300
C472        C  0.19382076  0.37012294  0.45872652    -0.13900
C473        C  0.19935960  0.37718492  0.30478574    -0.12300
C474        C  0.21775677  0.38008744  0.27355934    -0.13900
C475        C  0.85033185  0.54466343  0.12323643    -0.12300
C476        C  0.88277611  0.55291751  0.11869427    -0.13900
C477        C  0.74205098  0.52473014  0.20710182    -0.12300
C478        C  0.72437546  0.52349353  0.23851050    -0.13900
C479        C  0.73415648  0.51603884  0.05331556    -0.12300
C480        C  0.71538191  0.51338262  0.02256860    -0.13900
C481        C  0.57487871  0.64587756  0.38646782    -0.12300
C482        C  0.56675085  0.66975916  0.38821292    -0.13900
C483        C  0.53304686  0.74777805  0.46842131    -0.12300
C484        C  0.52706460  0.76071574  0.49982730    -0.13900
C485        C  0.54897389  0.76192535  0.31534499    -0.12300
C486        C  0.54807155  0.77858114  0.28428706    -0.13900
C487        C  0.66935027  0.07039684  0.10169924    -0.12300
C488        C  0.64572354  0.03747148  0.10169573    -0.13900
C489        C  0.75618311  0.17879994  0.18601931    -0.12300
C490        C  0.77246069  0.19546690  0.21812329    -0.13900
C491        C  0.77660008  0.20360690  0.00024573    -0.12300
C492        C  0.76053599  0.18562909  0.03165366    -0.13900
C493        C  0.26532102  0.82655316  0.35066289    -0.12300
C494        C  0.28912949  0.85951409  0.35065293    -0.13900
C495        C  0.17651703  0.71831004  0.43399383    -0.12300
C496        C  0.16025774  0.70156975  0.46603102    -0.13900
C497        C  0.15687533  0.69386421  0.24828108    -0.12300
C498        C  0.17325077  0.71196443  0.27956134    -0.13900
C499        C  0.36428796  0.22382290  0.13436550    -0.12300
C500        C  0.35615165  0.24763759  0.13275759    -0.13900
C501        C  0.40500022  0.13354962  0.24577713    -0.12300
C502        C  0.39866585  0.14646590  0.21464637    -0.13900
C503        C  0.38690423  0.11859179  0.02984233    -0.12300
C504        C  0.38553636  0.13451762  0.06126452    -0.13900
C505        C  0.37496723  0.19523814  0.63598450     0.81100
N506        N  0.37634973  0.17936889  0.59879994    -0.77200
C507        C  0.38347527  0.15114988  0.59919364     0.83600
N508        N  0.38915660  0.13875628  0.63681993    -0.77100
C509        C  0.38781919  0.15454283  0.67409837     0.83700
N510        N  0.38071375  0.18283865  0.67365685    -0.78800
C511        C  0.24036935  0.78615939  0.85265309     0.81100
N512        N  0.22561465  0.76652992  0.81603626    -0.77200
C513        C  0.19664103  0.73037429  0.81775690     0.83600
N514        N  0.18224160  0.71409302  0.85610640    -0.77100
C515        C  0.19697732  0.73365388  0.89275074     0.83700
N516        N  0.22596629  0.76976125  0.89097168    -0.78800
C517        C  0.69332862  0.10646073  0.60189818     0.81100
N518        N  0.70896041  0.12696446  0.56613433    -0.77200
C519        C  0.73680988  0.16338744  0.56930077     0.83600
N520        N  0.74934259  0.17920187  0.60823063    -0.77100
C521        C  0.73372889  0.15872453  0.64409920     0.83700
N522        N  0.70583593  0.12222924  0.64091707    -0.78800
C523        C  0.55921172  0.70039311  0.88954601     0.81100
N524        N  0.55826308  0.71709349  0.85277611    -0.77200
C525        C  0.55007402  0.74462057  0.85374998     0.83600
N526        N  0.54283376  0.75540870  0.89164718    -0.77100
C527        C  0.54367270  0.73874711  0.92849936     0.83700
N528        N  0.55193984  0.71126040  0.92740760    -0.78800
C529        C  0.81275604  0.53551125  0.62911254     0.81100
N530        N  0.79556069  0.53246985  0.66716120    -0.77200
C531        C  0.75990427  0.52632767  0.66808977     0.83600
N532        N  0.74169579  0.52341422  0.63093309    -0.77100
C533        C  0.75882182  0.52642348  0.59296114     0.83700
N534        N  0.79437746  0.53257611  0.59211550    -0.78800
C535        C  0.12059044  0.35532848  0.87730179     0.81100
N536        N  0.14047211  0.36025846  0.84100378    -0.77200
C537        C  0.17710449  0.36974332  0.84304608     0.83600
N538        N  0.19387201  0.37411805  0.88161324    -0.77100
C539        C  0.17415877  0.36933002  0.91814685     0.83700
N540        N  0.13737390  0.35978975  0.91595086    -0.78800
Zr541      Zr  0.81187617  0.23924516  0.85557278     2.17500
O542        O  0.77847922  0.17108251  0.85601982    -0.50400
O543        O  0.75616987  0.24486501  0.86064691    -0.73600
O544        O  0.78817318  0.21500532  0.92711036    -0.80400
O545        O  0.82189682  0.24475465  0.73568199    -0.82100
O546        O  0.82960521  0.25722602  0.97527315    -0.77800
O547        O  0.78222306  0.20799069  0.78856501    -0.89400
O548        O  0.77673906  0.30678300  0.85548982    -0.75400
O549        O  0.82923218  0.29405986  0.89615744    -0.84900
O550        O  0.82741754  0.28739333  0.80425878    -0.84500
O551        O  0.86512314  0.25045059  0.89860509    -0.71300
O552        O  0.86345916  0.24492331  0.81361413    -0.83400
Zr553      Zr  0.95051635  0.35996464  0.84796886     2.26400
Zr554      Zr  0.88344461  0.30686394  0.93747935     2.06300
Zr555      Zr  0.88094146  0.29539702  0.76466639     2.10000
Zr556      Zr  0.84411572  0.34152773  0.84508875     1.78800
O557        O  0.91691869  0.27343456  0.72604231    -0.92200
O558        O  0.83304375  0.37374863  0.90268400    -0.40000
O559        O  0.89683347  0.34867959  0.80684464    -0.76700
O560        O  0.89784074  0.35531424  0.88682133    -0.95400
O561        O  0.93519661  0.31168655  0.89824042    -0.88700
O562        O  0.93447968  0.30618714  0.80618353    -0.91500
C563        C  0.75088413  0.27251869  0.86045722     1.02200
C564        C  0.79121784  0.21619952  0.74915380     1.15200
C565        C  0.79920188  0.22669162  0.96534434     1.06000
O566        O  0.86359026  0.32846598  0.99849633    -0.93700
O567        O  0.93076560  0.36894757  0.96357846    -0.89400
O568        O  0.97156658  0.40024644  0.90921898    -0.82600
C569        C  0.95924754  0.39804775  0.94702113     1.12600
O570        O  0.88052725  0.18869101  0.85933753    -0.95600
Zr571      Zr  0.91664040  0.25696203  0.85666327     1.88900
O572        O  0.00464723  0.35233356  0.85583372    -0.72300
O573        O  0.91746272  0.28924184  0.98603356    -0.51500
O574        O  0.93282130  0.23284965  0.91858270    -0.96200
O575        O  0.93766499  0.23391146  0.79788268    -0.53400
O576        O  0.98465859  0.29094807  0.86540098    -0.72800
C577        C  0.01048728  0.32558888  0.86309508     0.99500
O578        O  0.99931844  0.42649107  0.84652822    -0.61600
O579        O  0.87569949  0.30671220  0.68935170    -0.56400
O580        O  0.96877305  0.38650677  0.77724440    -0.93100
O581        O  0.91322751  0.36136235  0.74285401    -0.91500
O582        O  0.81961676  0.35389610  0.78060725    -0.91900
O583        O  0.87262844  0.40791732  0.82960129    -0.90700
C584        C  0.94678436  0.38878325  0.75074203     1.18400
H585        H  0.80622267  0.28182378  0.78619541     0.34300
H586        H  0.90397662  0.37866070  0.89988532     0.45200
H587        H  0.95578496  0.31078987  0.78887539     0.38700
H588        H  0.85773604  0.22992065  0.91814275     0.35200
H589        H  0.81402024  0.37906360  0.89120679     0.27000
H590        H  0.93801838  0.30383051  0.50039510     0.32900
H591        H  0.94439576  0.25393456  0.93902092     0.38800
H592        H  0.80010298  0.35904883  0.79076803     0.33300
H593        H  0.86607303  0.28244652  0.67468879     0.32200
H594        H  0.93405480  0.29452790  0.70720679     0.33800
H595        H  0.94792140  0.21972366  0.81165574     0.32800
H596        H  0.89851641  0.41976952  0.84144576     0.36800
H597        H  0.01983759  0.42902493  0.82788071     0.29500
H598        H  0.75281132  0.16287347  0.86674538     0.33800
H599        H  0.89922950  0.18083392  0.86237494     0.36600
H600        H  0.85462368  0.31144315  0.68792946     0.29200
H601        H  0.98821605  0.43924631  0.83119490     0.42100
H602        H  0.84076863  0.32825366  0.98858930     0.32200
H603        H  0.81920038  0.35422749  0.92457247     0.39800
H604        H  0.96025340  0.25628512  0.78603806     0.31600
H605        H  0.89806821  0.26430527  0.99695662     0.31700
H606        H  0.79047543  0.16457302  0.87899024     0.32000
Zr607      Zr  0.12123235  0.65304884  0.60600506     2.17500
O608        O  0.15046959  0.72086548  0.60635474    -0.50400
O609        O  0.17826366  0.64970078  0.60565002    -0.73600
O610        O  0.14884068  0.67800858  0.67596584    -0.80400
O611        O  0.10458980  0.64917121  0.48778831    -0.82100
O612        O  0.10971834  0.63612550  0.72595411    -0.77800
O613        O  0.14817374  0.68452158  0.53831426    -0.89400
O614        O  0.15900265  0.58802391  0.60147916    -0.75400
O615        O  0.10731469  0.59883446  0.64607613    -0.84900
O616        O  0.10467168  0.60515499  0.55416587    -0.84500
O617        O  0.06971759  0.64024861  0.65287124    -0.71300
O618        O  0.06688895  0.64535501  0.56832939    -0.83400
Zr619      Zr  0.98440199  0.52938876  0.60478436     2.26400
Zr620      Zr  0.05463612  0.58446338  0.69132981     2.06300
Zr621      Zr  0.04881461  0.59535913  0.51855841     2.10000
Zr622      Zr  0.09157220  0.55164459  0.59429308     1.78800
O623        O  0.00776256  0.61228183  0.48211632    -0.92200
O624        O  0.10562988  0.51960900  0.64946795    -0.40000
O625        O  0.03671393  0.54280774  0.55990976    -0.76700
O626        O  0.03972499  0.53646918  0.63971988    -0.95400
O627        O  0.99999730  0.57717579  0.65600036    -0.88700
O628        O  0.99687246  0.58273388  0.56410813    -0.91500
C629        C  0.18435941  0.62259756  0.60482919     1.02200
C630        C  0.13636940  0.67725509  0.49960125     1.15200
C631        C  0.13949368  0.66680398  0.71463818     1.06000
O632        O  0.07796552  0.56759891  0.75341525    -0.93700
O633        O  0.01169639  0.52080759  0.71792789    -0.89400
O634        O  0.96761641  0.48956006  0.66631705    -0.82600
C635        C  0.98260219  0.49143307  0.70249016     1.12600
O636        O  0.04639058  0.69950605  0.61945425    -0.95600
Zr637      Zr  0.01534254  0.63152081  0.61527465     1.88900
O638        O  0.92856079  0.53399518  0.61440610    -0.72300
O639        O  0.01926326  0.60008732  0.74031173    -0.51500
O640        O  0.00308646  0.65084264  0.68365832    -0.96200
O641        O  0.99329048  0.65800560  0.56153432    -0.53400
O642        O  0.94697706  0.59528543  0.62092273    -0.72800
C643        C  0.92178012  0.56036523  0.61971468     0.99500
O644        O  0.93880384  0.46201242  0.60484780    -0.61600
O645        O  0.05546465  0.58643867  0.44289569    -0.56400
O646        O  0.96402569  0.50205295  0.53450935    -0.93100
O647        O  0.01790745  0.52935980  0.49658385    -0.91500
O648        O  0.11364915  0.54057326  0.52711878    -0.91900
O649        O  0.06374057  0.48532587  0.57895451    -0.90700
C650        C  0.98551611  0.50079556  0.50637217     1.18400
H651        H  0.12510620  0.61147274  0.53452218     0.34300
H652        H  0.03522905  0.51332917  0.65178194     0.45200
H653        H  0.97461004  0.57753904  0.54836869     0.38700
H654        H  0.07752360  0.66084711  0.67244523     0.35200
H655        H  0.12866705  0.52029210  0.63944676     0.27000
H656        H  0.01863527  0.58747608  0.76728365     0.32900
H657        H  0.98030816  0.65242546  0.67892560     0.38800
H658        H  0.09712749  0.54185750  0.50521558     0.33300
H659        H  0.06697199  0.60035626  0.92537400     0.32200
H660        H  0.99522696  0.58617411  0.95793803     0.33800
H661        H  0.97385481  0.66104924  0.57618104     0.32800
H662        H  0.03610917  0.47480992  0.58035854     0.36800
H663        H  0.91641831  0.45822449  0.58892889     0.29500
H664        H  0.17755533  0.73082790  0.61236020     0.33800
H665        H  0.02632107  0.70483824  0.62648717     0.36600
H666        H  0.08055426  0.58900858  0.44012836     0.29200
H667        H  0.94985222  0.45050084  0.58702493     0.42100
H668        H  0.08764341  0.55209498  0.74192348     0.32200
H669        H  0.11421760  0.53687890  0.67413768     0.39800
H670        H  0.97880894  0.63761017  0.54081998     0.31600
H671        H  0.03637208  0.62706924  0.74630873     0.31700
H672        H  0.14070150  0.72659179  0.63222794     0.32000
Zr673      Zr  0.40695973  0.09226961  0.88795137     2.17500
O674        O  0.36590804  0.11776374  0.88122471    -0.50400
O675        O  0.46527251  0.15277596  0.89616301    -0.73600
O676        O  0.39538445  0.11071516  0.95764143    -0.80400
O677        O  0.41453368  0.08393176  0.76698632    -0.82100
O678        O  0.38659694  0.06618182  0.00599285    -0.77800
O679        O  0.40292801  0.11583002  0.81768270    -0.89400
O680        O  0.51042216  0.14041737  0.91670836    -0.75400
O681        O  0.43571786  0.07612390  0.94304990    -0.84900
O682        O  0.45726815  0.08973622  0.85420056    -0.84500
O683        O  0.35842377  0.03296624  0.91681887    -0.71300
O684        O  0.37875634  0.04416036  0.83495435    -0.83400
Zr685      Zr  0.41009917  0.96664825  0.88360743     2.26400
Zr686      Zr  0.38857834  0.01594997  0.97005135     2.06300
Zr687      Zr  0.42913245  0.04104290  0.80186534     2.10000
Zr688      Zr  0.48594592  0.07423859  0.90980131     1.78800
O689        O  0.39584164  0.00489442  0.73881741    -0.92200
O690        O  0.51017103  0.08646202  0.98248685    -0.40000
O691        O  0.45801794  0.02630217  0.85756153    -0.76700
O692        O  0.44007812  0.01439407  0.93769976    -0.95400
O693        O  0.35941139  0.96795861  0.91748336    -0.88700
O694        O  0.38056409  0.98118653  0.82817453    -0.91500
C695        C  0.49891999  0.16275289  0.90798863     1.02200
C696        C  0.40621122  0.10820095  0.77871174     1.15200
C697        C  0.38954555  0.09722670  0.99560249     1.06000
O698        O  0.40646538  0.02444604  0.04499987    -0.93700
O699        O  0.39866704  0.96906957  0.00424404    -0.89400
O700        O  0.41254549  0.94126259  0.95102595    -0.82600
C701        C  0.40782069  0.94596731  0.99009430     1.12600
O702        O  0.28991616  0.00898131  0.84645332    -0.95600
Zr703      Zr  0.33117288  0.98511588  0.86297602     1.88900
O704        O  0.35354177  0.90897844  0.86123086    -0.72300
O705        O  0.32290067  0.97717539  0.99221619    -0.51500
O706        O  0.27701182  0.95888604  0.91100329    -0.96200
O707        O  0.30414550  0.96821843  0.79162280    -0.53400
O708        O  0.30418035  0.91824936  0.85892463    -0.72800
C709        C  0.31834710  0.89742212  0.85730787     0.99500
O710        O  0.42283363  0.91572004  0.88725820    -0.61600
O711        O  0.48240777  0.08457222  0.75736709    -0.56400
O712        O  0.45776502  0.97217699  0.83410383    -0.93100
O713        O  0.46902687  0.01562692  0.78353832    -0.91500
O714        O  0.54050330  0.10321829  0.86251504    -0.91900
O715        O  0.53159815  0.05501182  0.92142728    -0.90700
C716        C  0.47482572  0.99116242  0.80087715     1.18400
H717        H  0.47508729  0.11307844  0.84057446     0.34300
H718        H  0.45420987  0.00917301  0.95802616     0.45200
H719        H  0.37104244  0.96244523  0.80597894     0.38700
H720        H  0.33885097  0.03573722  0.92975638     0.35200
H721        H  0.53310434  0.11180051  0.98152230     0.27000
H722        H  0.32031769  0.95501757  0.49741415     0.32900
H723        H  0.25657663  0.93700661  0.89566243     0.38800
H724        H  0.53147603  0.08845604  0.83585431     0.33300
H725        H  0.47243579  0.07969237  0.72789649     0.32200
H726        H  0.41412723  0.01691682  0.71519476     0.33800
H727        H  0.30613114  0.94649983  0.78312767     0.32800
H728        H  0.51668537  0.02739287  0.91885915     0.36800
H729        H  0.41821730  0.90473004  0.85831075     0.29500
H730        H  0.38002614  0.14287279  0.89451844     0.33800
H731        H  0.26467897  0.98669507  0.84075676     0.34800
H732        H  0.48718309  0.10979782  0.76418823     0.29200
H733        H  0.45037496  0.92744902  0.89201805     0.42100
H734        H  0.43394543  0.04308161  0.04501012     0.32200
H735        H  0.49167191  0.08962255  0.99907939     0.39800
H736        H  0.32267607  0.98893131  0.77326630     0.31600
H737        H  0.31768166  0.99430436  0.00846041     0.31700
H738        H  0.34440310  0.10258891  0.90067002     0.32000
Zr739      Zr  0.52523565  0.80183570  0.64102057     2.17500
O740        O  0.56680955  0.77700162  0.63396374    -0.50400
O741        O  0.46706805  0.74228116  0.65235782    -0.73600
O742        O  0.53771463  0.78453693  0.71090877    -0.80400
O743        O  0.51352856  0.80553401  0.52093742    -0.82100
O744        O  0.54910012  0.83119255  0.75734389    -0.77800
O745        O  0.52512948  0.77408272  0.57220630    -0.89400
O746        O  0.42188131  0.75561754  0.66951019    -0.75400
O747        O  0.49948457  0.82096046  0.69650909    -0.84900
O748        O  0.47414563  0.80414338  0.60892464    -0.84500
O749        O  0.57564438  0.86175170  0.66581951    -0.71300
O750        O  0.55169572  0.84740894  0.58521769    -0.83400
Zr751      Zr  0.52428377  0.92824853  0.63234511     2.26400
Zr752      Zr  0.54851327  0.88174056  0.71950969     2.06300
Zr753      Zr  0.50065926  0.85040673  0.55397395     2.10000
Zr754      Zr  0.44827937  0.82228957  0.66512145     1.78800
O755        O  0.53196208  0.88319257  0.48848095    -0.92200
O756        O  0.42779648  0.80676124  0.73902029    -0.40000
O757        O  0.47422191  0.86801530  0.60997374    -0.76700
O758        O  0.49607589  0.88290350  0.68905429    -0.95400
O759        O  0.57589524  0.92728359  0.66410662    -0.88700
O760        O  0.55092425  0.91089891  0.57634482    -0.91500
C761        C  0.43328455  0.73290995  0.66257313     1.02200
C762        C  0.52123032  0.78093364  0.53314935     1.15200
C763        C  0.54488390  0.79929839  0.74828365     1.06000
O764        O  0.53757033  0.87943106  0.79596757    -0.93700
O765        O  0.53983077  0.93010340  0.75229530    -0.89400
O766        O  0.52565159  0.95726264  0.69862961    -0.82600
C767        C  0.53102308  0.95335400  0.73774217     1.12600
O768        O  0.64170840  0.88290914  0.59076917    -0.95600
Zr769      Zr  0.60111023  0.90711076  0.60925873     1.88900
O770        O  0.58066335  0.98448550  0.60680801    -0.72300
O771        O  0.61546031  0.92051500  0.73626385    -0.51500
O772        O  0.65627278  0.93149561  0.65546381    -0.96200
O773        O  0.62520688  0.92125136  0.53643637    -0.53400
O774        O  0.62925934  0.97402279  0.60454363    -0.72800
C775        C  0.61568030  0.99534136  0.60279102     0.99500
O776        O  0.51131007  0.97891718  0.63808142    -0.61600
O777        O  0.44544996  0.80561288  0.51278892    -0.56400
O778        O  0.47704211  0.92345173  0.58284923    -0.93100
O779        O  0.46232152  0.87724368  0.53477126    -0.91500
O780        O  0.39093467  0.79579091  0.62239356    -0.91900
O781        O  0.40599238  0.84409575  0.68487353    -0.90700
C782        C  0.45862116  0.90348893  0.55073889     1.18400
H783        H  0.45563845  0.78055724  0.59632743     0.34300
H784        H  0.48303208  0.88938716  0.70949438     0.45200
H785        H  0.55967689  0.92876662  0.55325657     0.38700
H786        H  0.59544530  0.85899631  0.67810886     0.35200
H787        H  0.43950163  0.79272298  0.74940518     0.27000
H788        H  0.61739450  0.94105039  0.75397137     0.32900
H789        H  0.67574089  0.95509354  0.64184485     0.38800
H790        H  0.39959731  0.79680075  0.59273879     0.33300
H791        H  0.45933280  0.81961485  0.98135806     0.32200
H792        H  0.52982742  0.90068868  0.98127196     0.33800
H793        H  0.62039443  0.94082699  0.52631281     0.32800
H794        H  0.41294988  0.86543242  0.66551431     0.36800
H795        H  0.51674605  0.99097480  0.60969314     0.29500
H796        H  0.55267256  0.75167534  0.64671868     0.33800
H797        H  0.66668683  0.90505327  0.58372310     0.36600
H798        H  0.44150278  0.78065733  0.51935183     0.29200
H799        H  0.48362865  0.96698243  0.64189957     0.42100
H800        H  0.51016745  0.86120820  0.79936102     0.32200
H801        H  0.44143755  0.83092276  0.75442047     0.39800
H802        H  0.60744531  0.89867170  0.51988548     0.31600
H803        H  0.62035640  0.90522745  0.75631262     0.31700
H804        H  0.58804057  0.79194525  0.65381780     0.32000
C805        C  0.64176369  0.32328882  0.88906959     0.81100
N806        N  0.60546090  0.29624709  0.89761022    -0.77200
C807        C  0.59564321  0.25987801  0.89900277     0.83600
N808        N  0.62201060  0.25051108  0.89146005    -0.77100
C809        C  0.65820437  0.27752795  0.88276468     0.83700
N810        N  0.66807046  0.31394115  0.88150037    -0.78800
C811        C  0.29279303  0.57245377  0.63661770     0.81100
N812        N  0.32841092  0.59952591  0.64768941    -0.77200
C813        C  0.33799768  0.63582425  0.64825848     0.83600
N814        N  0.31222612  0.64515076  0.63745602    -0.77100
C815        C  0.27679719  0.61817419  0.62620826     0.83700
N816        N  0.26698532  0.58174902  0.62580288    -0.78800
Zr817      Zr  0.25847191  0.38103509  0.63055689     2.17500
O818        O  0.18970615  0.34201314  0.62816687    -0.50400
O819        O  0.26233984  0.44124651  0.63136993    -0.73600
O820        O  0.23102641  0.37870821  0.70063202    -0.80400
O821        O  0.26603021  0.37339654  0.51123171    -0.82100
O822        O  0.27029651  0.37848846  0.75142510    -0.77800
O823        O  0.22816032  0.37592931  0.56213952    -0.89400
O824        O  0.32471972  0.48632913  0.63006368    -0.75400
O825        O  0.31134187  0.42074012  0.67465059    -0.84900
O826        O  0.30920334  0.41762249  0.58229056    -0.84500
O827        O  0.26937454  0.34017270  0.67424728    -0.71300
O828        O  0.26778924  0.33807571  0.58870121    -0.83400
Zr829      Zr  0.38271749  0.37293619  0.63149322     2.26400
Zr830      Zr  0.32377658  0.38057963  0.71728420     2.06300
Zr831      Zr  0.32080587  0.37537194  0.54278214     2.10000
Zr832      Zr  0.36147362  0.45705241  0.62653873     1.78800
O833        O  0.30617296  0.32098596  0.49965628    -0.92200
O834        O  0.38996503  0.50129848  0.68516163    -0.40000
O835        O  0.37045053  0.41307056  0.58974231    -0.76700
O836        O  0.37475625  0.41856217  0.66990381    -0.95400
O837        O  0.33187138  0.33586365  0.67865515    -0.88700
O838        O  0.33149027  0.33381654  0.58513259    -0.91500
C839        C  0.28966565  0.47546328  0.63135819     1.02200
C840        C  0.23661454  0.37376396  0.52327147     1.15200
C841        C  0.24045646  0.37803554  0.73956685     1.06000
O842        O  0.33820864  0.42182752  0.77828663    -0.93700
O843        O  0.38680444  0.40290331  0.74721151    -0.89400
O844        O  0.42049445  0.39530930  0.69518462    -0.82600
C845        C  0.41731661  0.40625586  0.73202916     1.12600
O846        O  0.21083510  0.25849966  0.63323171    -0.95600
Zr847      Zr  0.27950811  0.29808192  0.63251035     1.88900
O848        O  0.37599855  0.31138675  0.62994391    -0.72300
O849        O  0.30676161  0.32895056  0.76609590    -0.51500
O850        O  0.25423431  0.25697135  0.69423537    -0.96200
O851        O  0.25690061  0.25493007  0.57219431    -0.53400
O852        O  0.31416401  0.26614801  0.63635698    -0.72800
C853        C  0.34924021  0.27715820  0.63354294     0.99500
O854        O  0.44365176  0.37659047  0.62935223    -0.61600
O855        O  0.33572084  0.40517823  0.47285452    -0.56400
O856        O  0.42295858  0.40812853  0.57239500    -0.93100
O857        O  0.38773371  0.41261178  0.51995446    -0.91500
O858        O  0.37853386  0.49555256  0.56262454    -0.91900
O859        O  0.42946669  0.49683356  0.61610479    -0.90700
C860        C  0.41956717  0.42027380  0.53640680     1.18400
H861        H  0.30351406  0.43238502  0.56356869     0.34300
H862        H  0.39749713  0.43775180  0.68344775     0.45200
H863        H  0.33731428  0.31837160  0.56785787     0.38700
H864        H  0.24770688  0.32521113  0.69230796     0.35200
H865        H  0.39630809  0.52570369  0.67287091     0.27000
H866        H  0.31693088  0.34116778  0.79399151     0.32900
H867        H  0.27672998  0.26171606  0.71066601     0.38800
H868        H  0.37387340  0.47808347  0.53885453     0.33300
H869        H  0.30877544  0.38022802  0.95186222     0.32200
H870        H  0.32408711  0.32382536  0.98652318     0.33800
H871        H  0.24262362  0.22967453  0.58512118     0.32800
H872        H  0.43920385  0.47973214  0.61900630     0.36800
H873        H  0.44485979  0.36613035  0.60148559     0.29500
H874        H  0.18047838  0.35838891  0.63796914     0.33800
H875        H  0.20177373  0.27605899  0.62939511     0.36600
H876        H  0.33046948  0.42568798  0.47528308     0.29200
H877        H  0.46347565  0.40350075  0.62798488     0.42100
H878        H  0.34217639  0.44541299  0.76597530     0.32200
H879        H  0.36877163  0.49478697  0.70492407     0.39800
H880        H  0.27969139  0.25638036  0.56001843     0.31600
H881        H  0.27899378  0.31647960  0.76923255     0.31700
H882        H  0.18272982  0.32338083  0.65123202     0.32000
Zr883      Zr  0.67665015  0.51459499  0.88005927     2.17500
O884        O  0.74539105  0.55403803  0.88000513    -0.50400
O885        O  0.67307329  0.45460823  0.88062040    -0.73600
O886        O  0.70217348  0.51435144  0.95026724    -0.80400
O887        O  0.66965125  0.52216985  0.76097925    -0.82100
O888        O  0.66085993  0.51103850  0.00070165    -0.77800
O889        O  0.70705585  0.51873956  0.81175136    -0.89400
O890        O  0.61061312  0.40987878  0.87906671    -0.75400
O891        O  0.62301109  0.47407491  0.92286405    -0.84900
O892        O  0.62670318  0.47900195  0.83057553    -0.84500
O893        O  0.66517593  0.55444564  0.92510268    -0.71300
O894        O  0.66834547  0.55898764  0.83972868    -0.83400
Zr895      Zr  0.55275454  0.52304553  0.87913955     2.26400
Zr896      Zr  0.60967904  0.51328453  0.96620536     2.06300
Zr897      Zr  0.61556057  0.52231082  0.79299839     2.10000
Zr898      Zr  0.57352646  0.43926410  0.87329500     1.78800
O899        O  0.63153210  0.57860297  0.75225721    -0.92200
O900        O  0.54532021  0.39562696  0.93316195    -0.40000
O901        O  0.56718897  0.48494710  0.83928934    -0.76700
O902        O  0.55956306  0.47669895  0.91711596    -0.95400
O903        O  0.60232878  0.55899194  0.92860306    -0.88700
O904        O  0.60533235  0.56386581  0.83577247    -0.91500
C905        C  0.64563027  0.42048541  0.88083373     1.02200
C906        C  0.69873316  0.52099551  0.77281956     1.15200
C907        C  0.69130804  0.51255134  0.98904204     1.06000
O908        O  0.59083603  0.47153597  0.02744433    -0.93700
O909        O  0.54646868  0.49218850  0.99483267    -0.89400
O910        O  0.51336719  0.49931399  0.94170386    -0.82600
C911        C  0.51616235  0.48876927  0.97893660     1.12600
O912        O  0.72498249  0.63665044  0.88808674    -0.95600
Zr913      Zr  0.65615380  0.59807379  0.88499413     1.88900
O914        O  0.55978156  0.58509293  0.88225827    -0.72300
O915        O  0.62969183  0.56520770  0.01552542    -0.51500
O916        O  0.67584619  0.63450189  0.95070728    -0.96200
O917        O  0.68192886  0.64487015  0.82838256    -0.53400
O918        O  0.62171204  0.63041826  0.88693825    -0.72800
C919        C  0.58657242  0.61941402  0.88534336     0.99500
O920        O  0.48968940  0.51505405  0.88200631    -0.61600
O921        O  0.60375406  0.50155459  0.71873700    -0.56400
O922        O  0.51561330  0.49860393  0.81529836    -0.93100
O923        O  0.54921255  0.48390717  0.77100323    -0.91500
O924        O  0.55740891  0.40155927  0.80895614    -0.91900
O925        O  0.50614687  0.39505886  0.86537877    -0.90700
C926        C  0.51828381  0.48123928  0.78345698     1.18400
H927        H  0.63232448  0.46437404  0.81157821     0.34300
H928        H  0.53653398  0.45746454  0.93014199     0.45200
H929        H  0.59986609  0.57986454  0.81904832     0.38700
H930        H  0.68644005  0.56862229  0.94396266     0.35200
H931        H  0.54242039  0.37184181  0.92297864     0.27000
H932        H  0.61122758  0.56911752  0.52488906     0.32900
H933        H  0.68001647  0.65929322  0.94274229     0.38800
H934        H  0.55511071  0.41711688  0.78679641     0.33300
H935        H  0.62505310  0.52136663  0.70200674     0.32200
H936        H  0.60705521  0.57368606  0.74081921     0.33800
H937        H  0.68653724  0.66827524  0.84193505     0.32800
H938        H  0.49531697  0.41110283  0.86123321     0.36800
H939        H  0.48854675  0.53029324  0.85854246     0.29500
H940        H  0.75455275  0.53781209  0.89056352     0.33800
H941        H  0.73106066  0.66252959  0.89354055     0.36600
H942        H  0.60722538  0.47984091  0.71751406     0.29200
H943        H  0.47126017  0.48873272  0.87415075     0.42100
H944        H  0.57430178  0.44615681  0.01553591     0.32200
H945        H  0.56554230  0.40474653  0.95490375     0.39800
H946        H  0.66058744  0.63781276  0.80867320     0.31600
H947        H  0.62872724  0.55435919  0.04388798     0.31700
H948        H  0.75148599  0.57252760  0.90303553     0.32000
C949        C  0.45223249  0.42960662  0.75352299    -0.12300
C950        C  0.48329158  0.45351733  0.76494962    -0.13900
C951        C  0.45434458  0.44740694  0.51698249    -0.12300
C952        C  0.48116411  0.46623771  0.00051126    -0.13900
C953        C  0.28151476  0.50471566  0.63316017    -0.12300
C954        C  0.28326655  0.53431863  0.63484733    -0.13900
C955        C  0.65159227  0.36146390  0.88625895    -0.12300
C956        C  0.65361020  0.39114202  0.88359578    -0.13900
C957        C  0.40474608  0.69418390  0.66307082    -0.12300
C958        C  0.37559455  0.66492067  0.65842244    -0.13900
C959        C  0.55716202  0.23077988  0.90609113    -0.12300
C960        C  0.52739788  0.20167985  0.90890322    -0.13900
C961        C  0.41843026  0.92678564  0.01896264    -0.12300
C962        C  0.43224413  0.91170879  0.53211100    -0.13900
C963        C  0.52083245  0.97307782  0.76640698    -0.12300
C964        C  0.50250068  0.98442101  0.78297187    -0.13900
C965        C  0.24923362  0.62780072  0.61603927    -0.12300
C966        C  0.22200902  0.63026242  0.60945530    -0.13900
C967        C  0.71363563  0.26575811  0.86737957    -0.12300
C968        C  0.68625008  0.26799417  0.87435431    -0.13900
C969        C  0.97537529  0.43234140  0.96965950    -0.12300
C970        C  0.97554203  0.46464103  0.49068094    -0.13900
C971        C  0.96859630  0.45644771  0.72348314    -0.12300
C972        C  0.95825696  0.42504729  0.73454229    -0.13900
C973        C  0.04894323  0.33541585  0.86948671    -0.12300
C974        C  0.08153748  0.34446133  0.87432433    -0.13900
C975        C  0.20981648  0.37502224  0.99065129    -0.12300
C976        C  0.19208473  0.37285092  0.95889728    -0.13900
C977        C  0.19765534  0.37372466  0.80440908    -0.12300
C978        C  0.21585834  0.37613180  0.77316203    -0.13900
C979        C  0.85077800  0.54284921  0.62763288    -0.12300
C980        C  0.88300060  0.55014348  0.62448465    -0.13900
C981        C  0.74143641  0.52380758  0.70814080    -0.12300
C982        C  0.72341671  0.52222466  0.73937376    -0.13900
C983        C  0.73938849  0.52358455  0.55377517    -0.12300
C984        C  0.72135380  0.52152993  0.52251356    -0.13900
C985        C  0.57649013  0.64761929  0.88701551    -0.12300
C986        C  0.56837601  0.67152962  0.88835843    -0.13900
C987        C  0.53615728  0.75068457  0.96853360    -0.12300
C988        C  0.53020197  0.76351423  0.00008184    -0.13900
C989        C  0.54905142  0.76243731  0.81475923    -0.12300
C990        C  0.54762819  0.77842632  0.78328575    -0.13900
C991        C  0.66494184  0.06761748  0.59847874    -0.12300
C992        C  0.64192067  0.03460632  0.59805281    -0.13900
C993        C  0.74871891  0.17525645  0.68507903    -0.12300
C994        C  0.76554254  0.19203188  0.71677578    -0.13900
C995        C  0.77239465  0.20251968  0.50103799    -0.12300
C996        C  0.75484288  0.18441034  0.53157595    -0.13900
C997        C  0.26959498  0.82494156  0.85098239    -0.12300
C998        C  0.29264253  0.85799721  0.85208999    -0.13900
C999        C  0.18070780  0.71637120  0.93314475    -0.12300
C1000       C  0.16390837  0.69928128  0.96475642    -0.13900
C1001       C  0.16330022  0.69082057  0.74840000    -0.12300
C1002       C  0.17999125  0.70964340  0.77912381    -0.13900
C1003       C  0.36686665  0.22477094  0.63537040    -0.12300
C1004       C  0.35926944  0.24900685  0.63446163    -0.13900
C1005       C  0.39950773  0.12757547  0.74504437    -0.12300
C1006       C  0.39399043  0.14107782  0.71380225    -0.13900
C1007       C  0.38788202  0.11931702  0.52846282    -0.12300
C1008       C  0.38547773  0.13459011  0.55989445    -0.13900
loop_ 
_geom_bond_atom_site_label_1 
_geom_bond_atom_site_label_2 
_geom_bond_distance 
_geom_bond_site_symmetry_2 
_ccdc_geom_bond_type 
C1            N2   1.357       .  A
C1            N6   1.360       .  A
C1          C499   1.436       .  S
N2            C3   1.356       .  A
C3            N4   1.358       .  A
C3          C504   1.438       .  S
N4            C5   1.358       .  A
C5            N6   1.359       .  A
C5          C502   1.441       .  S
C7            N8   1.358       .  A
C7           N12   1.360       .  A
C7          C493   1.440       .  S
N8            C9   1.358       .  A
C9           N10   1.360       .  A
C9          C498   1.442       .  S
N10          C11   1.360       .  A
C11          N12   1.358       .  A
C11         C495   1.443       .  S
C13          N14   1.357       .  A
C13          N18   1.360       .  A
C13         C487   1.436       .  S
N14          C15   1.357       .  A
C15          N16   1.359       .  A
C15         C492   1.439       .  S
N16          C17   1.359       .  A
C17          N18   1.358       .  A
C17         C489   1.444       .  S
C19          N20   1.360       .  A
C19          N24   1.360       .  A
C19         C482   1.441       .  S
N20          C21   1.358       .  A
C21          N22   1.358       .  A
C21         C485   1.442       .  S
N22          C23   1.359       .  A
C23          N24   1.359       .  A
C23         C483   1.443       .  S
C25          N26   1.362       .  A
C25          N30   1.358       .  A
C25         C475   1.441       .  S
N26          C27   1.361       .  A
C27          N28   1.358       .  A
C27         C477   1.446       .  S
N28          C29   1.357       .  A
C29          N30   1.356       .  A
C29         C479   1.438       .  S
C31          N32   1.357       .  A
C31          N36   1.359       .  A
C31         C470   1.435       .  S
N32          C33   1.356       .  A
C33          N34   1.358       .  A
C33         C473   1.439       .  S
N34          C35   1.358       .  A
C35          N36   1.359       .  A
C35         C472   1.440       .  S
Zr37         O38   2.440       .  S
Zr37         O39   2.440       .  S
Zr37         O40   2.435       .  S
Zr37         O43   2.449       .  S
Zr37         O45   2.388       .  S
Zr37         O46   2.386       .  S
Zr37         O47   2.411       .  S
Zr37         O48   2.409       .  S
O38          H94   0.990       .  S
O38         H102   0.990       .  S
O39          C59   1.283       .  A
O40          C61   1.284       .  A
O41         Zr51   2.435       .  S
O41          C60   1.282       .  A
O42         Zr50   2.422       .  S
O42          C61   1.281       .  A
O43          C60   1.287       .  A
O44         Zr52   2.398       .  S
O44          C59   1.275       .  A
O45         Zr50   2.403       .  S
O45         Zr52   2.366       .  S
O46         Zr51   2.405       .  S
O46         Zr52   2.371       .  S
O46          H81   0.966       .  S
O47         Zr50   2.404       .  S
O47         Zr67   2.393       .  S
O47          H84   0.966       .  S
O48         Zr51   2.395       .  S
O48         Zr67   2.401       .  S
Zr49         O74   2.447   1_655  S
Zr49         O68   2.438   1_655  S
Zr49         O76   2.424       .  S
Zr49         O64   2.414       .  S
Zr49         O55   2.387       .  S
Zr49         O56   2.419       .  S
Zr49         O57   2.374       .  S
Zr49         O58   2.385       .  S
Zr50         O69   2.435       .  S
Zr50         O62   2.435       .  S
Zr50         O63   2.465       .  S
Zr50         O56   2.390       .  S
Zr50         O57   2.384       .  S
Zr51         O53   2.437       .  S
Zr51         O75   2.441       .  S
Zr51         O77   2.465       .  S
Zr51         O55   2.359       .  S
Zr51         O58   2.403       .  S
Zr52         O78   2.434       .  S
Zr52         O79   2.434       .  S
Zr52         O54   2.436       .  S
Zr52         O55   2.366       .  S
Zr52         O56   2.374       .  S
O53          H90   0.990       .  S
O54          H85   0.990       .  S
O54          H99   0.990       .  S
O56          H82   0.962       .  S
O57         Zr67   2.394       .  S
O58         Zr67   2.399       .  S
O58          H83   0.966       .  S
C59         C463   1.429       .  S
C60         C490   1.444       .  S
C61         C995   1.430       .  S
O62          H98   0.990       .  S
O63          C65   1.289       .  A
O64          C65   1.277       .  A
C65         C465   1.429       .  S
O66         Zr67   2.440       .  S
O66          H95   0.990       .  S
Zr67         O70   2.440       .  S
Zr67         O71   2.440       .  S
Zr67         O72   2.413       .  S
O68          C73   1.281       .  A
O69         H101   0.990       .  S
O69         H590   0.990       .  S
O70          H87   0.990       .  S
O71          H91   0.990       .  S
O71         H100   0.990       .  S
O72          C73   1.277   1_655  A
C73         C469   1.434       .  S
O74          H93   0.991       .  S
O74          H97   0.991       .  S
O75          H89   0.990       .  S
O75          H96   0.991       .  S
O76          C80   1.277       .  A
O77          C80   1.289       .  A
O78          H88   0.990       .  S
O79          H92   0.990       .  S
C80         C468   1.426       .  S
H86         O573   0.990   1_554  S
Zr103       O104   2.439       .  S
Zr103       O105   2.441       .  S
Zr103       O106   2.452       .  S
Zr103       O109   2.444       .  S
Zr103       O111   2.384       .  S
Zr103       O112   2.389       .  S
Zr103       O113   2.409       .  S
Zr103       O114   2.413       .  S
O104        H160   0.990       .  S
O104        H168   0.990       .  S
O105        C125   1.284       .  A
O106        C127   1.287       .  A
O107       Zr117   2.434   1_556  S
O107        C126   1.282       .  A
O108       Zr116   2.426       .  S
O108        C127   1.282       .  A
O109        C126   1.286   1_554  A
O110       Zr118   2.401       .  S
O110        C125   1.277       .  A
O111       Zr116   2.401       .  S
O111       Zr118   2.370       .  S
O112       Zr117   2.404       .  S
O112       Zr118   2.372       .  S
O112        H147   0.966       .  S
O113       Zr116   2.406       .  S
O113       Zr133   2.402       .  S
O113        H150   0.966       .  S
O114       Zr117   2.392       .  S
O114       Zr133   2.400       .  S
Zr115       O140   2.447       .  S
Zr115       O134   2.442       .  S
Zr115       O142   2.421       .  S
Zr115       O130   2.405       .  S
Zr115       O121   2.383   1_655  S
Zr115       O122   2.417   1_655  S
Zr115       O123   2.370       .  S
Zr115       O124   2.383       .  S
Zr116       O135   2.433       .  S
Zr116       O128   2.434       .  S
Zr116       O129   2.456       .  S
Zr116       O122   2.389       .  S
Zr116       O123   2.386   1_455  S
Zr117       O119   2.437   1_554  S
Zr117       O141   2.441   1_554  S
Zr117       O143   2.457   1_554  S
Zr117       O121   2.356       .  S
Zr117       O124   2.403   1_455  S
Zr118       O144   2.436       .  S
Zr118       O145   2.435       .  S
Zr118       O120   2.435       .  S
Zr118       O121   2.358       .  S
Zr118       O122   2.377       .  S
O119        H660   0.990   1_455  S
O120        H151   0.990       .  S
O120        H165   0.990       .  S
O122        H148   0.963       .  S
O123       Zr133   2.391   1_655  S
O124       Zr133   2.395   1_655  S
O124        H149   0.966       .  S
C125        C462   1.429       .  S
C126       C1000   1.440       .  S
C127        C497   1.441       .  S
O128        H164   0.990       .  S
O129        C131   1.287   1_455  A
O130        C131   1.275       .  A
C131        C467   1.424       .  S
O132       Zr133   2.440       .  S
O132        H161   0.990       .  S
Zr133       O136   2.438       .  S
Zr133       O137   2.443   1_455  S
Zr133       O138   2.421   1_455  S
O134        C139   1.282       .  A
O135        H152   0.990       .  S
O135        H167   0.990       .  S
O136        H153   0.990   1_455  S
O137        H157   0.990       .  S
O137        H166   0.989       .  S
O138        C139   1.279       .  A
C139        C476   1.440       .  S
O140        H159   0.991       .  S
O140        H163   0.991       .  S
O141        H162   0.991       .  S
O141        H659   0.990       .  S
O142        C146   1.277       .  A
O143        C146   1.287   1_456  A
O144        H154   0.990       .  S
O145        H158   0.990       .  S
C146        C466   1.420   1_554  S
H155        O645   0.990       .  S
H156        O623   0.990   1_655  S
Zr169       O170   2.437       .  S
Zr169       O171   2.436       .  S
Zr169       O172   2.442       .  S
Zr169       O175   2.441       .  S
Zr169       O177   2.383       .  S
Zr169       O178   2.387       .  S
Zr169       O179   2.412       .  S
Zr169       O180   2.395       .  S
O170        H226   0.990       .  S
O170        H234   0.990       .  S
O171        C191   1.283       .  A
O172        C193   1.285       .  A
O173       Zr183   2.436       .  S
O173        C192   1.284       .  A
O174       Zr182   2.423       .  S
O174        C193   1.281       .  A
O175        C192   1.286       .  A
O176       Zr184   2.422       .  S
O176        C191   1.281       .  A
O177       Zr182   2.397       .  S
O177       Zr184   2.360       .  S
O178       Zr183   2.395       .  S
O178       Zr184   2.380       .  S
O178        H213   0.966       .  S
O179       Zr182   2.406       .  S
O179       Zr199   2.409   1_545  S
O179        H216   0.965       .  S
O180       Zr183   2.391       .  S
O180       Zr199   2.386   1_545  S
Zr181       O206   2.447       .  S
Zr181       O200   2.445       .  S
Zr181       O208   2.415       .  S
Zr181       O196   2.390       .  S
Zr181       O187   2.389   1_565  S
Zr181       O188   2.422   1_565  S
Zr181       O189   2.370       .  S
Zr181       O190   2.378       .  S
Zr182       O201   2.433   1_545  S
Zr182       O194   2.435       .  S
Zr182       O195   2.455   1_545  S
Zr182       O188   2.391       .  S
Zr182       O189   2.388   1_545  S
Zr183       O185   2.436       .  S
Zr183       O207   2.439       .  S
Zr183       O209   2.458       .  S
Zr183       O187   2.371       .  S
Zr183       O190   2.403   1_545  S
Zr184       O210   2.435       .  S
Zr184       O211   2.435       .  S
Zr184       O186   2.438       .  S
Zr184       O187   2.379       .  S
Zr184       O188   2.402       .  S
O185        H222   0.990       .  S
O186        H217   0.990       .  S
O186        H231   0.990       .  S
O188        H214   0.964       .  S
O189       Zr199   2.385       .  S
O190       Zr199   2.396       .  S
O190        H215   0.966       .  S
C191        C456   1.434       .  S
C192        C501   1.440       .  S
C193       C1007   1.436       .  S
O194        H230   0.990       .  S
O195        C197   1.286       .  A
O196        C197   1.272       .  A
C197        C457   1.425       .  S
O198       Zr199   2.438   1_545  S
O198        H227   0.990   1_545  S
Zr199       O202   2.437       .  S
Zr199       O203   2.440       .  S
Zr199       O204   2.417       .  S
O200        C205   1.282       .  A
O201        H233   0.990       .  S
O201        H722   0.990       .  S
O202        H219   0.990       .  S
O203        H223   0.990       .  S
O203        H232   0.990       .  S
O204        C205   1.278       .  A
C205        C494   1.439       .  S
O206        H225   0.991       .  S
O206        H229   0.991       .  S
O207        H221   0.990       .  S
O207        H228   0.990       .  S
O208        C212   1.276       .  A
O209        C212   1.288   1_545  A
O210        H220   0.990       .  S
O211        H224   0.990       .  S
C212        C460   1.427       .  S
H218        O705   0.990   1_554  S
Zr235       O236   2.439       .  S
Zr235       O237   2.435       .  S
Zr235       O238   2.447       .  S
Zr235       O241   2.450       .  S
Zr235       O243   2.385       .  S
Zr235       O244   2.390       .  S
Zr235       O245   2.414       .  S
Zr235       O246   2.397       .  S
O236        H292   0.990       .  S
O236        H300   0.990       .  S
O237        C257   1.282       .  A
O238        C259   1.285       .  A
O239       Zr249   2.432       .  S
O239        C258   1.283       .  A
O240       Zr248   2.428       .  S
O240        C259   1.282       .  A
O241        C258   1.288       .  A
O242       Zr250   2.414       .  S
O242        C257   1.279       .  A
O243       Zr248   2.399       .  S
O243       Zr250   2.363       .  S
O244       Zr249   2.395       .  S
O244       Zr250   2.383       .  S
O244        H279   0.965       .  S
O245       Zr248   2.405       .  S
O245       Zr265   2.410       .  S
O245        H282   0.965       .  S
O246       Zr249   2.390       .  S
O246       Zr265   2.386       .  S
Zr247       O272   2.447       .  S
Zr247       O266   2.435       .  S
Zr247       O274   2.415       .  S
Zr247       O262   2.389       .  S
Zr247       O253   2.386       .  S
Zr247       O254   2.417       .  S
Zr247       O255   2.373       .  S
Zr247       O256   2.376       .  S
Zr248       O267   2.433       .  S
Zr248       O260   2.436       .  S
Zr248       O261   2.458       .  S
Zr248       O254   2.397       .  S
Zr248       O255   2.384       .  S
Zr249       O251   2.437   1_554  S
Zr249       O273   2.438       .  S
Zr249       O275   2.448       .  S
Zr249       O253   2.377       .  S
Zr249       O256   2.396       .  S
Zr250       O276   2.435       .  S
Zr250       O277   2.435       .  S
Zr250       O252   2.438       .  S
Zr250       O253   2.379       .  S
Zr250       O254   2.392       .  S
O251        H792   0.990       .  S
O252        H283   0.990       .  S
O252        H297   0.990       .  S
O254        H280   0.964       .  S
O255       Zr265   2.383       .  S
O256       Zr265   2.395       .  S
O256        H281   0.965       .  S
C257        C453   1.429       .  S
C258        C988   1.442       .  S
C259        C486   1.441       .  S
O260        H296   0.991       .  S
O261        C263   1.286       .  A
O262        C263   1.271       .  A
C263        C459   1.422       .  S
O264       Zr265   2.439       .  S
O264        H293   0.990       .  S
Zr265       O268   2.436       .  S
Zr265       O269   2.442       .  S
Zr265       O270   2.416       .  S
O266        C271   1.281       .  A
O267        H284   0.990       .  S
O267        H299   0.990       .  S
O268        H285   0.990       .  S
O269        H289   0.990       .  S
O269        H298   0.990       .  S
O270        C271   1.278       .  A
C271        C488   1.434   1_565  S
O272        H291   0.990       .  S
O272        H295   0.991       .  S
O273        H294   0.990       .  S
O273        H791   0.990   1_554  S
O274        C278   1.276       .  A
O275        C278   1.286       .  A
O276        H286   0.990       .  S
O277        H290   0.990       .  S
C278        C458   1.426       .  S
H287        O777   0.990       .  S
H288        O755   0.990       .  S
C301        N302   1.360       .  A
C301        N306   1.356       .  A
C301        C451   1.435       .  S
N302        C303   1.358       .  A
C303        N304   1.356       .  A
C303        C455   1.434       .  S
N304        C305   1.353       .  A
C305        N306   1.357       .  A
C305        C464   1.431       .  S
C307        N308   1.358       .  A
C307        N312   1.355       .  A
C307        C450   1.430       .  S
N308        C309   1.355       .  A
C309        N310   1.357       .  A
C309        C454   1.431       .  S
N310        C311   1.354       .  A
C311        N312   1.356       .  A
C311        C461   1.431       .  S
Zr313       O314   2.437       .  S
Zr313       O315   2.434       .  S
Zr313       O316   2.448       .  S
Zr313       O319   2.446       .  S
Zr313       O321   2.384       .  S
Zr313       O322   2.390       .  S
Zr313       O323   2.410       .  S
Zr313       O324   2.413       .  S
O314        H370   0.990       .  S
O314        H378   0.990       .  S
O315        C335   1.282       .  A
O316        C337   1.286       .  A
O317       Zr327   2.442       .  S
O317        C336   1.283       .  A
O318       Zr326   2.422       .  S
O318        C337   1.281       .  A
O319        C336   1.286       .  A
O320       Zr328   2.402       .  S
O320        C335   1.277       .  A
O321       Zr326   2.399       .  S
O321       Zr328   2.369       .  S
O322       Zr327   2.401       .  S
O322       Zr328   2.374       .  S
O322        H357   0.966       .  S
O323       Zr326   2.399       .  S
O323       Zr343   2.399       .  S
O323        H360   0.966       .  S
O324       Zr327   2.397       .  S
O324       Zr343   2.402       .  S
Zr325       O350   2.448       .  S
Zr325       O344   2.435       .  S
Zr325       O352   2.417       .  S
Zr325       O340   2.412       .  S
Zr325       O331   2.386       .  S
Zr325       O332   2.419       .  S
Zr325       O333   2.376       .  S
Zr325       O334   2.388       .  S
Zr326       O345   2.434       .  S
Zr326       O338   2.434       .  S
Zr326       O339   2.452       .  S
Zr326       O332   2.391       .  S
Zr326       O333   2.393       .  S
Zr327       O329   2.437   1_554  S
Zr327       O351   2.440   1_554  S
Zr327       O353   2.468       .  S
Zr327       O331   2.360       .  S
Zr327       O334   2.405       .  S
Zr328       O354   2.435       .  S
Zr328       O355   2.436       .  S
Zr328       O330   2.436       .  S
Zr328       O331   2.361       .  S
Zr328       O332   2.383       .  S
O329        H870   0.990       .  S
O330        H361   0.990       .  S
O330        H375   0.989       .  S
O332        H358   0.963       .  S
O333       Zr343   2.395       .  S
O334       Zr343   2.394       .  S
O334        H359   0.965       .  S
C335        C449   1.428       .  S
C336        C975   1.446   1_554  S
C337        C474   1.438       .  S
O338        H374   0.990       .  S
O339        C341   1.286       .  A
O340        C341   1.276       .  A
C341        C445   1.427       .  S
O342       Zr343   2.441       .  S
O342        H371   0.989       .  S
Zr343       O346   2.437       .  S
Zr343       O347   2.440       .  S
Zr343       O348   2.420       .  S
O344        C349   1.280       .  A
O345        H362   0.990       .  S
O345        H377   0.990       .  S
O346        H363   0.991       .  S
O347        H367   0.990       .  S
O347        H376   0.990       .  S
O348        C349   1.279       .  A
C349        C500   1.436       .  S
O350        H369   0.990       .  S
O350        H373   0.991       .  S
O351        H372   0.991       .  S
O351        H869   0.990       .  S
O352        C356   1.276       .  A
O353        C356   1.290       .  A
O354        H364   0.990       .  S
O355        H368   0.990       .  S
C356        C447   1.424       .  S
H365        O855   0.990       .  S
H366        O833   0.990       .  S
Zr379       O380   2.439       .  S
Zr379       O381   2.442       .  S
Zr379       O382   2.451       .  S
Zr379       O385   2.445       .  S
Zr379       O387   2.384       .  S
Zr379       O388   2.390       .  S
Zr379       O389   2.408       .  S
Zr379       O390   2.408       .  S
O380        H436   0.990       .  S
O380        H444   0.990       .  S
O381        C401   1.284       .  A
O382        C403   1.287       .  A
O383       Zr393   2.443       .  S
O383        C402   1.284       .  A
O384       Zr392   2.422       .  S
O384        C403   1.281       .  A
O385        C402   1.286       .  A
O386       Zr394   2.401       .  S
O386        C401   1.276       .  A
O387       Zr392   2.400       .  S
O387       Zr394   2.367       .  S
O388       Zr393   2.401       .  S
O388       Zr394   2.373       .  S
O388        H423   0.966       .  S
O389       Zr392   2.406       .  S
O389       Zr409   2.399       .  S
O389        H426   0.966       .  S
O390       Zr393   2.399       .  S
O390       Zr409   2.398       .  S
Zr391       O416   2.447       .  S
Zr391       O410   2.447       .  S
Zr391       O418   2.423       .  S
Zr391       O406   2.397       .  S
Zr391       O397   2.390       .  S
Zr391       O398   2.421       .  S
Zr391       O399   2.374       .  S
Zr391       O400   2.381       .  S
Zr392       O411   2.434       .  S
Zr392       O404   2.434       .  S
Zr392       O405   2.464       .  S
Zr392       O398   2.389       .  S
Zr392       O399   2.391       .  S
Zr393       O395   2.436       .  S
Zr393       O417   2.440       .  S
Zr393       O419   2.471       .  S
Zr393       O397   2.358       .  S
Zr393       O400   2.406       .  S
Zr394       O420   2.437       .  S
Zr394       O421   2.435       .  S
Zr394       O396   2.436       .  S
Zr394       O397   2.365       .  S
Zr394       O398   2.379       .  S
O395        H432   0.990       .  S
O396        H427   0.990       .  S
O396        H441   0.990       .  S
O398        H424   0.963       .  S
O399       Zr409   2.393       .  S
O400       Zr409   2.396       .  S
O400        H425   0.965       .  S
C401        C452   1.431       .  S
C402        C478   1.446       .  S
C403        C984   1.439       .  S
O404        H440   0.990       .  S
O405        C407   1.289       .  A
O406        C407   1.273       .  A
C407        C448   1.425       .  S
O408       Zr409   2.436       .  S
O408        H437   0.990       .  S
Zr409       O412   2.435       .  S
Zr409       O413   2.441       .  S
Zr409       O414   2.416       .  S
O410        C415   1.283       .  A
O411        H443   0.990       .  S
O411        H932   0.990       .  S
O412        H429   0.990       .  S
O413        H433   0.990       .  S
O413        H442   0.989       .  S
O414        C415   1.278       .  A
C415        C481   1.440       .  S
O416        H435   0.990       .  S
O416        H439   0.991       .  S
O417        H431   0.990       .  S
O417        H438   0.991       .  S
O418        C422   1.277       .  A
O419        C422   1.290       .  A
O420        H430   0.990       .  S
O421        H434   0.990       .  S
C422        C446   1.430       .  S
H428        O915   0.990       .  S
C445        C446   1.203       .  T
C447        C952   1.201       .  T
C448        C951   1.202       .  T
C449        C450   1.202       .  T
C451        C452   1.205       .  T
C453        C454   1.203       .  T
C455        C456   1.205       .  T
C457        C962   1.202       .  T
C458        C961   1.200       .  T
C459        C460   1.201       .  T
C461        C462   1.203       .  T
C463        C464   1.203       .  T
C465        C970   1.205       .  T
C466        C969   1.198       .  T
C467        C468   1.201       .  T
C469        C470   1.205       .  T
C471        C840   1.440       .  S
C471        C472   1.209       .  T
C473        C474   1.208       .  T
C475        C476   1.209       .  T
C477        C478   1.212       .  T
C479        C480   1.207       .  T
C480        C907   1.437   1_554  S
C481        C482   1.209       .  T
C483        C484   1.210       .  T
C484        C762   1.441       .  S
C485        C486   1.209       .  T
C487        C488   1.206       .  T
C489        C490   1.211       .  T
C491        C565   1.438   1_554  S
C491        C492   1.208       .  T
C493        C494   1.208       .  T
C495        C496   1.210       .  T
C496        C630   1.441       .  S
C497        C498   1.209       .  T
C499        C500   1.206       .  T
C501        C502   1.209       .  T
C503        C697   1.437   1_554  S
C503        C504   1.207       .  T
C505        N506   1.358       .  A
C505        N510   1.360       .  A
C505       C1003   1.438       .  S
N506        C507   1.356       .  A
C507        N508   1.358       .  A
C507       C1008   1.437       .  S
N508        C509   1.358       .  A
C509        N510   1.359       .  A
C509       C1006   1.443       .  S
C511        N512   1.359       .  A
C511        N516   1.359       .  A
C511        C997   1.435       .  S
N512        C513   1.358       .  A
C513        N514   1.358       .  A
C513       C1002   1.441       .  S
N514        C515   1.358       .  A
C515        N516   1.357       .  A
C515        C999   1.441       .  S
C517        N518   1.355       .  A
C517        N522   1.359       .  A
C517        C991   1.431       .  S
N518        C519   1.355       .  A
C519        N520   1.357       .  A
C519        C996   1.432       .  S
N520        C521   1.357       .  A
C521        N522   1.357       .  A
C521        C993   1.439       .  S
C523        N524   1.360       .  A
C523        N528   1.360       .  A
C523        C986   1.441       .  S
N524        C525   1.358       .  A
C525        N526   1.359       .  A
C525        C989   1.444       .  S
N526        C527   1.360       .  A
C527        N528   1.359       .  A
C527        C987   1.444       .  S
C529        N530   1.362       .  A
C529        N534   1.358       .  A
C529        C979   1.439       .  S
N530        C531   1.361       .  A
C531        N532   1.359       .  A
C531        C981   1.446       .  S
N532        C533   1.358       .  A
C533        N534   1.356       .  A
C533        C983   1.440       .  S
C535        N536   1.357       .  A
C535        N540   1.361       .  A
C535        C974   1.437       .  S
N536        C537   1.355       .  A
C537        N538   1.359       .  A
C537        C977   1.440       .  S
N538        C539   1.360       .  A
C539        N540   1.361       .  A
C539        C976   1.447       .  S
Zr541       O542   2.438       .  S
Zr541       O543   2.441       .  S
Zr541       O544   2.448       .  S
Zr541       O547   2.443       .  S
Zr541       O549   2.383       .  S
Zr541       O550   2.390       .  S
Zr541       O551   2.414       .  S
Zr541       O552   2.413       .  S
O542        H598   0.990       .  S
O542        H606   0.990       .  S
O543        C563   1.283       .  A
O544        C565   1.286       .  A
O545       Zr555   2.431       .  S
O545        C564   1.282       .  A
O546       Zr554   2.424       .  S
O546        C565   1.282       .  A
O547        C564   1.286       .  A
O548       Zr556   2.406       .  S
O548        C563   1.277       .  A
O549       Zr554   2.399       .  S
O549       Zr556   2.370       .  S
O550       Zr555   2.407       .  S
O550       Zr556   2.370       .  S
O550        H585   0.966       .  S
O551       Zr554   2.402       .  S
O551       Zr571   2.398       .  S
O551        H588   0.966       .  S
O552       Zr555   2.398       .  S
O552       Zr571   2.403       .  S
Zr553       O578   2.446       .  S
Zr553       O572   2.434   1_655  S
Zr553       O580   2.420       .  S
Zr553       O568   2.401       .  S
Zr553       O559   2.395       .  S
Zr553       O560   2.416       .  S
Zr553       O561   2.374       .  S
Zr553       O562   2.380       .  S
Zr554       O573   2.434       .  S
Zr554       O566   2.434       .  S
Zr554       O567   2.442       .  S
Zr554       O560   2.394       .  S
Zr554       O561   2.387       .  S
Zr555       O557   2.439       .  S
Zr555       O579   2.442       .  S
Zr555       O581   2.456       .  S
Zr555       O559   2.372       .  S
Zr555       O562   2.403       .  S
Zr556       O582   2.436       .  S
Zr556       O583   2.436       .  S
Zr556       O558   2.435       .  S
Zr556       O559   2.369       .  S
Zr556       O560   2.379       .  S
O557        H594   0.990       .  S
O558        H589   0.990       .  S
O558        H603   0.990       .  S
O560        H586   0.963       .  S
O561       Zr571   2.388       .  S
O562       Zr571   2.390       .  S
O562        H587   0.966       .  S
C563        C967   1.432       .  S
C564        C994   1.438       .  S
O566        H602   0.990       .  S
O567        C569   1.285       .  A
O568        C569   1.275       .  A
C569        C969   1.418       .  S
O570       Zr571   2.441       .  S
O570        H599   0.990       .  S
Zr571       O574   2.437       .  S
Zr571       O575   2.441       .  S
Zr571       O576   2.422       .  S
O572        C577   1.281       .  A
O573        H605   0.990       .  S
O574        H591   0.990       .  S
O575        H595   0.990       .  S
O575        H604   0.990       .  S
O576        C577   1.280   1_655  A
C577        C973   1.436       .  S
O578        H597   0.991   1_655  S
O578        H601   0.991       .  S
O579        H593   0.990       .  S
O579        H600   0.990       .  S
O580        C584   1.272       .  A
O581        C584   1.285       .  A
O582        H592   0.990       .  S
O583        H596   0.990       .  S
C584        C972   1.426       .  S
Zr607       O608   2.437       .  S
Zr607       O609   2.436       .  S
Zr607       O610   2.444       .  S
Zr607       O613   2.442       .  S
Zr607       O615   2.386       .  S
Zr607       O616   2.387       .  S
Zr607       O617   2.410       .  S
Zr607       O618   2.410       .  S
O608        H664   0.990       .  S
O608        H672   0.990       .  S
O609        C629   1.283       .  A
O610        C631   1.286       .  A
O611       Zr621   2.435       .  S
O611        C630   1.282       .  A
O612       Zr620   2.435       .  S
O612        C631   1.284       .  A
O613        C630   1.285       .  A
O614       Zr622   2.397       .  S
O614        C629   1.275       .  A
O615       Zr620   2.402       .  S
O615       Zr622   2.371       .  S
O616       Zr621   2.404       .  S
O616       Zr622   2.372       .  S
O616        H651   0.966       .  S
O617       Zr620   2.403       .  S
O617       Zr637   2.395       .  S
O617        H654   0.967       .  S
O618       Zr621   2.396       .  S
O618       Zr637   2.403       .  S
Zr619       O644   2.445       .  S
Zr619       O638   2.435       .  S
Zr619       O646   2.424       .  S
Zr619       O634   2.404       .  S
Zr619       O625   2.392   1_655  S
Zr619       O626   2.414   1_655  S
Zr619       O627   2.377       .  S
Zr619       O628   2.382       .  S
Zr620       O639   2.434       .  S
Zr620       O632   2.435       .  S
Zr620       O633   2.455       .  S
Zr620       O626   2.396       .  S
Zr620       O627   2.392   1_455  S
Zr621       O623   2.438       .  S
Zr621       O645   2.441       .  S
Zr621       O647   2.462       .  S
Zr621       O625   2.370       .  S
Zr621       O628   2.401   1_455  S
Zr622       O648   2.435       .  S
Zr622       O649   2.435       .  S
Zr622       O624   2.437       .  S
Zr622       O625   2.363       .  S
Zr622       O626   2.372       .  S
O624        H655   0.990       .  S
O624        H669   0.990       .  S
O626        H652   0.963       .  S
O627       Zr637   2.387   1_655  S
O628       Zr637   2.388   1_655  S
O628        H653   0.966       .  S
C629        C966   1.426       .  S
C631       C1001   1.440       .  S
O632        H668   0.990       .  S
O633        C635   1.287   1_455  A
O634        C635   1.276       .  A
C635        C971   1.424       .  S
O636       Zr637   2.440       .  S
O636        H665   0.990       .  S
Zr637       O640   2.437       .  S
Zr637       O641   2.439   1_455  S
Zr637       O642   2.425   1_455  S
O638        C643   1.282       .  A
O639        H656   0.990       .  S
O639        H671   0.990       .  S
O640        H657   0.990   1_455  S
O641        H661   0.990       .  S
O641        H670   0.989       .  S
O642        C643   1.280       .  A
C643        C980   1.438       .  S
O644        H663   0.990       .  S
O644        H667   0.991       .  S
O645        H666   0.991       .  S
O646        C650   1.273       .  A
O647        C650   1.287   1_455  A
O648        H658   0.990       .  S
O649        H662   0.990       .  S
C650        C970   1.432       .  S
Zr673       O674   2.439       .  S
Zr673       O675   2.440       .  S
Zr673       O676   2.447       .  S
Zr673       O679   2.455       .  S
Zr673       O681   2.386       .  S
Zr673       O682   2.387       .  S
Zr673       O683   2.415       .  S
Zr673       O684   2.395       .  S
O674        H730   0.990       .  S
O674        H738   0.990       .  S
O675        C695   1.284       .  A
O676        C697   1.286       .  A
O677       Zr687   2.429       .  S
O677        C696   1.283       .  A
O678       Zr686   2.422   1_554  S
O678        C697   1.281   1_554  A
O679        C696   1.288       .  A
O680       Zr688   2.412       .  S
O680        C695   1.279       .  A
O681       Zr686   2.399       .  S
O681       Zr688   2.363       .  S
O682       Zr687   2.395       .  S
O682       Zr688   2.381       .  S
O682        H717   0.965       .  S
O683       Zr686   2.403       .  S
O683       Zr703   2.405   1_545  S
O683        H720   0.965       .  S
O684       Zr687   2.392       .  S
O684       Zr703   2.387   1_545  S
Zr685       O710   2.447       .  S
Zr685       O704   2.434       .  S
Zr685       O712   2.426       .  S
Zr685       O700   2.392       .  S
Zr685       O691   2.384   1_565  S
Zr685       O692   2.415   1_565  S
Zr685       O693   2.378       .  S
Zr685       O694   2.379       .  S
Zr686       O705   2.434   1_545  S
Zr686       O698   2.435   1_556  S
Zr686       O699   2.453   1_546  S
Zr686       O692   2.392       .  S
Zr686       O693   2.385   1_545  S
Zr687       O689   2.436       .  S
Zr687       O711   2.441       .  S
Zr687       O713   2.451       .  S
Zr687       O691   2.372       .  S
Zr687       O694   2.400   1_545  S
Zr688       O714   2.435       .  S
Zr688       O715   2.434       .  S
Zr688       O690   2.436       .  S
Zr688       O691   2.373       .  S
Zr688       O692   2.387       .  S
O689        H726   0.990       .  S
O690        H721   0.990       .  S
O690        H735   0.990       .  S
O692        H718   0.964       .  S
O693       Zr703   2.382       .  S
O694       Zr703   2.397       .  S
O694        H719   0.966       .  S
C695        C960   1.431       .  S
C696       C1005   1.443       .  S
O698        H734   0.990       .  S
O699        C701   1.286   1_554  A
O700        C701   1.273       .  A
C701        C961   1.422   1_556  S
O702       Zr703   2.439   1_545  S
O702        H731   0.990   1_545  S
Zr703       O706   2.438       .  S
Zr703       O707   2.438       .  S
Zr703       O708   2.416       .  S
O704        C709   1.280       .  A
O705        H737   0.990   1_556  S
O706        H723   0.990       .  S
O707        H727   0.990       .  S
O707        H736   0.990       .  S
O708        C709   1.278       .  A
C709        C998   1.433       .  S
O710        H729   0.991       .  S
O710        H733   0.991       .  S
O711        H725   0.990       .  S
O711        H732   0.990       .  S
O712        C716   1.278       .  A
O713        C716   1.286   1_545  A
O714        H724   0.990       .  S
O715        H728   0.990       .  S
C716        C964   1.429       .  S
Zr739       O740   2.438       .  S
Zr739       O741   2.429       .  S
Zr739       O742   2.447       .  S
Zr739       O745   2.450       .  S
Zr739       O747   2.385       .  S
Zr739       O748   2.389       .  S
Zr739       O749   2.410       .  S
Zr739       O750   2.393       .  S
O740        H796   0.990       .  S
O740        H804   0.990       .  S
O741        C761   1.282       .  A
O742        C763   1.286       .  A
O743       Zr753   2.432       .  S
O743        C762   1.283       .  A
O744       Zr752   2.435       .  S
O744        C763   1.284       .  A
O745        C762   1.288       .  A
O746       Zr754   2.412       .  S
O746        C761   1.279       .  A
O747       Zr752   2.396       .  S
O747       Zr754   2.364       .  S
O748       Zr753   2.390       .  S
O748       Zr754   2.382       .  S
O748        H783   0.965       .  S
O749       Zr752   2.402       .  S
O749       Zr769   2.404       .  S
O749        H786   0.965       .  S
O750       Zr753   2.390       .  S
O750       Zr769   2.384       .  S
Zr751       O776   2.447       .  S
Zr751       O770   2.433       .  S
Zr751       O778   2.422       .  S
Zr751       O766   2.393       .  S
Zr751       O757   2.390       .  S
Zr751       O758   2.413       .  S
Zr751       O759   2.376       .  S
Zr751       O760   2.379       .  S
Zr752       O771   2.433       .  S
Zr752       O764   2.434       .  S
Zr752       O765   2.455       .  S
Zr752       O758   2.395       .  S
Zr752       O759   2.386       .  S
Zr753       O755   2.436       .  S
Zr753       O777   2.440       .  S
Zr753       O779   2.447       .  S
Zr753       O757   2.379       .  S
Zr753       O760   2.399       .  S
Zr754       O780   2.435       .  S
Zr754       O781   2.436       .  S
Zr754       O756   2.438       .  S
Zr754       O757   2.381       .  S
Zr754       O758   2.386       .  S
O756        H787   0.990       .  S
O756        H801   0.990       .  S
O758        H784   0.963       .  S
O759       Zr769   2.382       .  S
O760       Zr769   2.397       .  S
O760        H785   0.966       .  S
C761        C957   1.425       .  S
C763        C990   1.443       .  S
O764        H800   0.990       .  S
O765        C767   1.286       .  A
O766        C767   1.273       .  A
C767        C963   1.424       .  S
O768       Zr769   2.439       .  S
O768        H797   0.990       .  S
Zr769       O772   2.437       .  S
Zr769       O773   2.440       .  S
Zr769       O774   2.413       .  S
O770        C775   1.280       .  A
O771        H788   0.990       .  S
O771        H803   0.990       .  S
O772        H789   0.990       .  S
O773        H793   0.990       .  S
O773        H802   0.990       .  S
O774        C775   1.278       .  A
C775        C992   1.430   1_565  S
O776        H795   0.990       .  S
O776        H799   0.991       .  S
O777        H798   0.990       .  S
O778        C782   1.278       .  A
O779        C782   1.286       .  A
O780        H790   0.990       .  S
O781        H794   0.990       .  S
C782        C962   1.429       .  S
C805        N806   1.358       .  A
C805        N810   1.355       .  A
C805        C955   1.430       .  S
N806        C807   1.355       .  A
C807        N808   1.358       .  A
C807        C959   1.433       .  S
N808        C809   1.356       .  A
C809        N810   1.357       .  A
C809        C968   1.434       .  S
C811        N812   1.357       .  A
C811        N816   1.356       .  A
C811        C954   1.431       .  S
N812        C813   1.355       .  A
C813        N814   1.355       .  A
C813        C958   1.427       .  S
N814        C815   1.353       .  A
C815        N816   1.357       .  A
C815        C965   1.429       .  S
Zr817       O818   2.439       .  S
Zr817       O819   2.438       .  S
Zr817       O820   2.453       .  S
Zr817       O823   2.439       .  S
Zr817       O825   2.385       .  S
Zr817       O826   2.389       .  S
Zr817       O827   2.409       .  S
Zr817       O828   2.412       .  S
O818        H874   0.990       .  S
O818        H882   0.990       .  S
O819        C839   1.283       .  A
O820        C841   1.287       .  A
O821       Zr831   2.436       .  S
O821        C840   1.282       .  A
O822       Zr830   2.419       .  S
O822        C841   1.281       .  A
O823        C840   1.285       .  A
O824       Zr832   2.399       .  S
O824        C839   1.276       .  A
O825       Zr830   2.402       .  S
O825       Zr832   2.370       .  S
O826       Zr831   2.402       .  S
O826       Zr832   2.371       .  S
O826        H861   0.966       .  S
O827       Zr830   2.408       .  S
O827       Zr847   2.399       .  S
O827        H864   0.967       .  S
O828       Zr831   2.402       .  S
O828       Zr847   2.400       .  S
Zr829       O854   2.447       .  S
Zr829       O848   2.441       .  S
Zr829       O856   2.415       .  S
Zr829       O844   2.407       .  S
Zr829       O835   2.382       .  S
Zr829       O836   2.419       .  S
Zr829       O837   2.374       .  S
Zr829       O838   2.384       .  S
Zr830       O849   2.434       .  S
Zr830       O842   2.434       .  S
Zr830       O843   2.456       .  S
Zr830       O836   2.388       .  S
Zr830       O837   2.393       .  S
Zr831       O833   2.437       .  S
Zr831       O855   2.439       .  S
Zr831       O857   2.476       .  S
Zr831       O835   2.348       .  S
Zr831       O838   2.404       .  S
Zr832       O858   2.435       .  S
Zr832       O859   2.436       .  S
Zr832       O834   2.435       .  S
Zr832       O835   2.358       .  S
Zr832       O836   2.379       .  S
O834        H865   0.990       .  S
O834        H879   0.990       .  S
O836        H862   0.962       .  S
O837       Zr847   2.395       .  S
O838       Zr847   2.394       .  S
O838        H863   0.965       .  S
C839        C953   1.429       .  S
C841        C978   1.439       .  S
O842        H878   0.990       .  S
O843        C845   1.287       .  A
O844        C845   1.275       .  A
C845        C949   1.425       .  S
O846       Zr847   2.436       .  S
O846        H875   0.990       .  S
Zr847       O850   2.436       .  S
Zr847       O851   2.441       .  S
Zr847       O852   2.417       .  S
O848        C853   1.281       .  A
O849        H866   0.990       .  S
O849        H881   0.990       .  S
O850        H867   0.990       .  S
O851        H871   0.990       .  S
O851        H880   0.990       .  S
O852        C853   1.278       .  A
C853       C1004   1.437       .  S
O854        H873   0.990       .  S
O854        H877   0.991       .  S
O855        H876   0.991       .  S
O856        C860   1.275       .  A
O857        C860   1.291       .  A
O858        H868   0.990       .  S
O859        H872   0.990       .  S
C860        C951   1.426       .  S
Zr883       O884   2.438       .  S
Zr883       O885   2.434       .  S
Zr883       O886   2.445       .  S
Zr883       O889   2.445       .  S
Zr883       O891   2.387       .  S
Zr883       O892   2.388       .  S
Zr883       O893   2.412       .  S
Zr883       O894   2.414       .  S
O884        H940   0.990       .  S
O884        H948   0.990       .  S
O885        C905   1.282       .  A
O886        C907   1.286       .  A
O887       Zr897   2.456       .  S
O887        C906   1.285       .  A
O888       Zr896   2.424   1_554  S
O888        C907   1.282   1_554  A
O889        C906   1.286       .  A
O890       Zr898   2.420       .  S
O890        C905   1.278       .  A
O891       Zr896   2.404       .  S
O891       Zr898   2.374       .  S
O892       Zr897   2.397       .  S
O892       Zr898   2.367       .  S
O892        H927   0.965       .  S
O893       Zr896   2.408       .  S
O893       Zr913   2.399       .  S
O893        H930   0.967       .  S
O894       Zr897   2.407       .  S
O894       Zr913   2.408       .  S
Zr895       O920   2.455       .  S
Zr895       O914   2.458       .  S
Zr895       O922   2.406       .  S
Zr895       O910   2.412       .  S
Zr895       O902   2.413       .  S
Zr895       O903   2.382       .  S
Zr895       O904   2.376       .  S
Zr895       O901   2.333       .  S
Zr896       O915   2.434   1_556  S
Zr896       O908   2.436   1_556  S
Zr896       O909   2.456       .  S
Zr896       O902   2.392       .  S
Zr896       O903   2.396       .  S
Zr897       O899   2.448       .  S
Zr897       O921   2.445       .  S
Zr897       O923   2.453       .  S
Zr897       O904   2.400       .  S
Zr897       O901   2.304       .  S
Zr898       O924   2.432       .  S
Zr898       O925   2.430       .  S
Zr898       O900   2.451       .  S
Zr898       O902   2.369       .  S
Zr898       O901   2.318       .  S
O899        H936   0.991       .  S
O900        H931   0.991       .  S
O900        H945   0.990       .  S
O902        H928   0.962       .  S
O903       Zr913   2.393       .  S
O904       Zr913   2.394       .  S
O904        H929   0.965       .  S
C905        C956   1.429       .  S
C906        C982   1.447       .  S
O908        H944   0.990       .  S
O909        C911   1.287       .  A
O910        C911   1.275       .  A
C911        C952   1.424   1_556  S
O912       Zr913   2.440       .  S
O912        H941   0.990       .  S
Zr913       O916   2.438       .  S
Zr913       O917   2.440       .  S
Zr913       O918   2.422       .  S
O914        C919   1.283       .  A
O915        H947   0.990       .  S
O916        H933   0.990       .  S
O917        H937   0.990       .  S
O917        H946   0.989       .  S
O918        C919   1.279       .  A
C919        C985   1.442       .  S
O920        H939   0.991       .  S
O920        H943   0.991       .  S
O921        H935   0.990       .  S
O921        H942   0.991       .  S
O922        C926   1.273       .  A
O923        C926   1.287       .  A
O924        H934   0.990       .  S
O925        H938   0.990       .  S
C926        C950   1.427       .  S
C949        C950   1.203       .  T
C953        C954   1.203       .  T
C955        C956   1.202       .  T
C957        C958   1.200       .  T
C959        C960   1.204       .  T
C963        C964   1.202       .  T
C965        C966   1.201       .  T
C967        C968   1.205       .  T
C971        C972   1.201       .  T
C973        C974   1.207       .  T
C975        C976   1.213       .  T
C977        C978   1.208       .  T
C979        C980   1.208       .  T
C981        C982   1.212       .  T
C983        C984   1.208       .  T
C985        C986   1.209       .  T
C987        C988   1.211   1_556  T
C989        C990   1.211       .  T
C991        C992   1.203       .  T
C993        C994   1.208       .  T
C995        C996   1.203       .  T
C997        C998   1.205       .  T
C999       C1000   1.209       .  T
C1001      C1002   1.209       .  T
C1003      C1004   1.207       .  T
C1005      C1006   1.211       .  T
C1007      C1008   1.207       .  T
