geometry optimzed in LAMMPS
_audit_creation_date              2020-11-30 
_audit_creation_method            'lammps2cif' 
_symmetry_space_group_name_H-M    'P1' 
_symmetry_Int_Tables_number       1 
_symmetry_cell_setting            triclinic 
loop_ 
_symmetry_equiv_pos_as_xyz 
  x,y,z 
_cell_length_a                    44.36936495 
_cell_length_b                    43.49276752559257 
_cell_length_c                    26.774732940409347 
_cell_angle_alpha                 89.59604955734905 
_cell_angle_beta                  89.84853187484508 
_cell_angle_gamma                 90.07159534623457 
loop_ 
_atom_site_label 
_atom_site_type_symbol 
_atom_site_fract_x 
_atom_site_fract_y 
_atom_site_fract_z 
_atom_site_charge 
O1          O  0.21219579  0.18598481  0.09635469    -0.72800
O2          O  0.23369996  0.22122854  0.14810342    -0.51700
C3          C  0.21813355  0.19707424  0.13986447     0.81000
O4          O  0.32833863  0.19529043  0.42666471    -0.57400
O5          O  0.29673976  0.20880867  0.36295276    -0.50400
C6          C  0.32028640  0.19555027  0.38047602     0.73000
O7          O  0.31848401  0.20063663  0.09636936    -0.71900
O8          O  0.29237578  0.23294343  0.14726343    -0.52500
C9          C  0.31106366  0.21095238  0.13974082     0.79000
O10         O  0.20733859  0.17556581  0.42673694    -0.57100
O11         O  0.22953206  0.20125463  0.36156472    -0.50200
C12         C  0.21189961  0.18059723  0.37974498     0.75600
Zr13       Zr  0.22369309  0.19512891  0.00779489     2.54700
O14         O  0.24111829  0.14253784  0.01842472    -0.77600
O15         O  0.17114941  0.17687892  0.51499171    -0.91000
Zr16       Zr  0.31085872  0.21349293  0.00837315     2.64700
O17         O  0.32832552  0.16064197  0.01814465    -0.96000
O18         O  0.36092811  0.23298270  0.51142143    -0.78100
O19         O  0.26620724  0.20822029  0.05558898    -0.81400
O20         O  0.26714884  0.19914875  0.45954337    -2.16100
O21         O  0.19274994  0.29011163  0.39763322    -0.64800
O22         O  0.22324717  0.26314490  0.34498472    -0.49400
C23         C  0.20127655  0.28142727  0.35376918     0.74000
O24         O  0.30469402  0.32581774  0.06526586    -0.57700
O25         O  0.28267673  0.29921997  0.12917549    -0.49700
C26         C  0.29928788  0.32088210  0.11148487     0.75800
O27         O  0.32393967  0.28512381  0.41488028    -0.69100
O28         O  0.29094112  0.27578481  0.35358415    -0.47800
C29         C  0.31568184  0.28752531  0.36953785     0.77100
O30         O  0.18604835  0.30079235  0.06594560    -0.64400
O31         O  0.21663660  0.28618050  0.13033950    -0.51600
C32         C  0.19318114  0.29958729  0.11256102     0.75500
Zr33       Zr  0.20555459  0.28390210  0.48617449     2.77500
O34         O  0.18330737  0.33418562  0.97715758    -0.95200
O35         O  0.15494310  0.26281060  0.49208766    -0.76000
Zr36       Zr  0.29291698  0.30128320  0.48369942     2.70100
O37         O  0.27348170  0.34825360  0.44570790    -0.77300
O38         O  0.33704126  0.33482884  0.99191083    -0.96300
Zr39       Zr  0.25648952  0.25704113  0.09136426     2.21500
Zr40       Zr  0.25910491  0.24039138  0.40147641     2.11100
O41         O  0.24954423  0.28983215  0.43622501    -2.45000
O42         O  0.24749436  0.29810042  0.03406033    -0.77100
O43         O  0.21409993  0.23550710  0.44950312    -0.69200
O44         O  0.30229028  0.26207857  0.04598963    -2.30200
O45         O  0.21278298  0.24314763  0.04475052    -2.26400
O46         O  0.30244092  0.25251273  0.44896903    -0.71000
H47         H  0.27048394  0.17992559  0.44254159     0.81000
H48         H  0.31897408  0.26716244  0.06757551     0.82100
H49         H  0.24683148  0.30487026  0.40999263     0.84300
H50         H  0.19529243  0.24111807  0.06614974     0.81900
H51         H  0.36529936  0.23318836  0.05449072     0.44900
H52         H  0.35311511  0.32435380  0.47456560     0.43900
H53         H  0.25580529  0.35391690  0.96681366     0.43600
H54         H  0.19679050  0.34418840  0.44593675     0.41500
H55         H  0.14752807  0.26268480  0.45725059     0.44700
H56         H  0.16225574  0.19150534  0.03860865     0.39400
H57         H  0.23884877  0.13801295  0.05452996     0.45600
H58         H  0.32440681  0.15018156  0.48705706     0.42000
H59         H  0.16443594  0.33115225  0.45677364     0.46900
H60         H  0.17206316  0.15773651  0.02684824     0.45600
H61         H  0.35004315  0.16248714  0.02597852     0.45800
H62         H  0.33347241  0.34520582  0.43974197     0.46100
O63         O  0.19201018  0.43735491  0.08633922    -0.72800
O64         O  0.21847210  0.46380609  0.14537400    -0.51700
C65         C  0.19792793  0.44476722  0.13166132     0.81000
O66         O  0.31720230  0.44088187  0.41882143    -0.57400
O67         O  0.28876440  0.46489254  0.35901578    -0.50400
C68         C  0.31036474  0.44698725  0.37318869     0.73000
O69         O  0.31726107  0.44119744  0.08657810    -0.71900
O70         O  0.28804808  0.46485288  0.14538377    -0.52500
C71         C  0.31020176  0.44763005  0.13198934     0.79000
O72         O  0.19316514  0.43544276  0.41793121    -0.57100
O73         O  0.21793222  0.46368681  0.35823496    -0.50200
C74         C  0.19824421  0.44353495  0.37232054     0.75600
Zr75       Zr  0.20949176  0.44942012  0.00196247     2.54700
O76         O  0.21658275  0.39400796  0.00184599    -0.77600
O77         O  0.15628491  0.44165083  0.49743836    -0.91000
Zr78       Zr  0.29813112  0.45153605  0.00248108     2.64700
O79         O  0.29488740  0.39605466  0.01152396    -0.96000
O80         O  0.35378321  0.45932981  0.50161923    -0.78100
O81         O  0.25365513  0.45012656  0.05198719    -0.81400
O82         O  0.25504953  0.45084970  0.45213680    -2.16100
O83         O  0.18985217  0.04898560  0.41228687    -0.64800
O84         O  0.21965125  0.02649302  0.35318672    -0.49400
C85         C  0.19759330  0.04374173  0.36686499     0.74000
O86         O  0.31476680  0.05543186  0.07880452    -0.57700
O87         O  0.28917322  0.02854948  0.13916807    -0.49700
C88         C  0.30952729  0.04781300  0.12456941     0.75800
O89         O  0.31623929  0.05191190  0.41130495    -0.69100
O90         O  0.28932460  0.02568549  0.35260837    -0.47800
C91         C  0.31026139  0.04443798  0.36601126     0.77100
O92         O  0.19000201  0.05136988  0.08005888    -0.64400
O93         O  0.21836244  0.02717885  0.13973728    -0.51600
C94         C  0.19688798  0.04524016  0.12569127     0.75500
Zr95       Zr  0.20847055  0.03799761  0.49604400     2.77500
O96         O  0.20247110  0.09257209  0.99346999    -0.95200
O97         O  0.15274859  0.02905249  0.00029534    -0.76000
Zr98       Zr  0.29718781  0.04150884  0.49535453     2.70100
O99         O  0.28846290  0.09655024  0.48962533    -0.77300
O100        O  0.34998857  0.05118733  0.00056842    -0.96300
Zr101      Zr  0.25275640  0.49689711  0.09861156     2.21500
Zr102      Zr  0.25250168  0.49729936  0.40372391     2.11100
O103        O  0.25278644  0.04015279  0.44624474    -2.45000
O104        O  0.25156246  0.04108634  0.04594518    -0.77100
O105        O  0.20757434  0.49399273  0.45238995    -0.69200
O106        O  0.29777312  0.49728712  0.04958934    -2.30200
O107        O  0.20789125  0.49503356  0.04971782    -2.26400
O108        O  0.29722083  0.49965626  0.45282240    -0.71000
H109        H  0.25600035  0.43304777  0.43081410     0.81000
H110        H  0.31558437  0.49785778  0.07015255     0.82100
H111        H  0.25231701  0.05772589  0.42403749     0.84300
H112        H  0.19009258  0.49487085  0.07055661     0.81900
H113        H  0.35889044  0.47135282  0.98964315     0.44900
H114        H  0.35983969  0.03396321  0.47331742     0.43900
H115        H  0.28833570  0.10300497  0.95639764     0.43600
H116        H  0.21965184  0.09825546  0.45731443     0.41500
H117        H  0.14869105  0.01569212  0.51120533     0.44700
H118        H  0.14721957  0.46098897  0.02138731     0.39400
H119        H  0.22319831  0.38886618  0.03618197     0.45600
H120        H  0.32052626  0.39303396  0.51598942     0.42000
H121        H  0.18716131  0.09903925  0.48009307     0.46900
H122        H  0.15049904  0.42506986  0.02102894     0.45600
H123        H  0.28145555  0.39267747  0.04063947     0.45800
H124        H  0.35572730  0.06855006  0.48812006     0.46100
O125        O  0.44210204  0.30605181  0.08267661    -0.72800
O126        O  0.46951767  0.28114475  0.14266064    -0.51700
C127        C  0.44959281  0.30092274  0.12839416     0.81000
O128        O  0.44799116  0.17978048  0.41674697    -0.57400
O129        O  0.47093703  0.20891597  0.35634171    -0.50400
C130        C  0.45349154  0.18685036  0.37085481     0.73000
O131        O  0.44808553  0.18120792  0.08438921    -0.71900
O132        O  0.47218600  0.21004999  0.14326842    -0.52500
C133        C  0.45444940  0.18820675  0.12971521     0.79000
O134        O  0.44242736  0.30665558  0.41522912    -0.57100
O135        O  0.46818547  0.27964386  0.35591586    -0.50200
C136        C  0.44929375  0.30040343  0.36974776     0.75600
Zr137      Zr  0.45634795  0.28871360  0.99894015     2.54700
O138        O  0.40205206  0.28206796  0.99517579    -0.77600
O139        O  0.45321350  0.34466875  0.49525298    -0.91000
Zr140      Zr  0.46164366  0.19779524  0.00026635     2.64700
O141        O  0.40715795  0.19226516  0.99892217    -0.96000
O142        O  0.47081106  0.14230670  0.50094614    -0.78100
O143        O  0.45791989  0.24337219  0.04891314    -0.81400
O144        O  0.45715038  0.24288198  0.45083132    -2.16100
O145        O  0.05606837  0.31357951  0.41387955    -0.64800
O146        O  0.03495386  0.28255279  0.35481826    -0.49400
C147        C  0.05096848  0.30571063  0.36848769     0.74000
O148        O  0.06722881  0.18635871  0.08327937    -0.57700
O149        O  0.03878246  0.21107174  0.14196426    -0.49700
C150        C  0.05908026  0.19163266  0.12861802     0.75800
O151        O  0.06664373  0.18561450  0.41678007    -0.69100
O152        O  0.03997167  0.21110317  0.35641646    -0.47800
C153        C  0.05962886  0.19117131  0.37103008     0.77100
O154        O  0.06046249  0.31034679  0.08101980    -0.64400
O155        O  0.03701444  0.28118228  0.14094856    -0.51600
C156        C  0.05472255  0.30310967  0.12675787     0.75500
Zr157      Zr  0.04519002  0.29469339  0.49787952     2.77500
O158        O  0.09965137  0.30018626  0.49346126    -0.95200
O159        O  0.03854631  0.35029074  0.50062071    -0.76000
Zr160      Zr  0.05292560  0.20401151  0.49966135     2.70100
O161        O  0.10726688  0.21103750  0.49664900    -0.77300
O162        O  0.05675496  0.14666773  0.00484513    -0.96300
Zr163      Zr  0.00518952  0.24502069  0.09543232     2.21500
Zr164      Zr  0.00495377  0.24482343  0.40078039     2.11100
O165        O  0.04998589  0.24922585  0.44958029    -2.45000
O166        O  0.05065317  0.24798229  0.04742474    -0.77100
O167        O  0.00107298  0.29086349  0.44864504    -0.69200
O168        O  0.00825980  0.19918823  0.04703313    -2.30200
O169        O  0.00205128  0.29082404  0.04596891    -2.26400
O170        O  0.00881220  0.19933109  0.45040157    -0.71000
H171        H  0.43952033  0.24161879  0.42982685     0.81000
H172        H  0.00940220  0.18119369  0.06824877     0.82100
H173        H  0.06754391  0.25067869  0.42827726     0.84300
H174        H  0.00102099  0.30890785  0.06660615     0.81900
H175        H  0.48666865  0.13833395  0.98425717     0.44900
H176        H  0.04892680  0.14018418  0.47503689     0.43900
H177        H  0.11208445  0.22133238  0.02513941     0.43600
H178        H  0.10314172  0.32267519  0.49368334     0.41500
H179        H  0.02562119  0.35408053  0.53013210     0.44700
H180        H  0.46219951  0.35178460  0.02764969     0.39400
H181        H  0.39482880  0.28719595  0.02911735     0.45600
H182        H  0.40057334  0.19098852  0.46918879     0.42000
H183        H  0.10682832  0.29301078  0.52652024     0.46900
H184        H  0.43000367  0.34843828  0.00435649     0.45600
H185        H  0.40378237  0.16980444  0.00148478     0.45800
H186        H  0.07813477  0.14383980  0.50730342     0.46100
C187        C  0.13844384  0.12895073  0.19887196     0.48000
H188        H  0.13686442  0.12847116  0.15740626    -0.01000
C189        C  0.14175817  0.12964056  0.29541773     0.48000
H190        H  0.14217005  0.12961904  0.33684612    -0.01000
C191        C  0.16208048  0.15153154  0.21844845    -0.14700
C192        C  0.10930940  0.13957590  0.22407179    -0.14500
C193        C  0.14764740  0.09787523  0.22168644    -0.14900
C194        C  0.16467140  0.15154123  0.26990256    -0.14800
C195        C  0.11095744  0.14005757  0.27504437    -0.14400
C196        C  0.14905883  0.09817802  0.27269249    -0.14700
C197        C  0.37428627  0.12615218  0.19790911     0.48000
H198        H  0.37576792  0.12580363  0.15641945    -0.01000
C199        C  0.37164098  0.12658144  0.29446892     0.48000
H200        H  0.37069493  0.12560824  0.33586178    -0.01000
C201        C  0.35156756  0.14954126  0.21799721    -0.14700
C202        C  0.36351470  0.09557698  0.22033884    -0.14500
C203        C  0.40414303  0.13519453  0.22308534    -0.14900
C204        C  0.35047251  0.15039182  0.26949491    -0.14800
C205        C  0.36231897  0.09569383  0.27135798    -0.14400
C206        C  0.40283450  0.13534338  0.27416230    -0.14700
C207        C  0.13617471  0.36350914  0.20212455     0.48000
H208        H  0.13662633  0.36491284  0.16077430    -0.01000
C209        C  0.13411700  0.36357947  0.29874858     0.48000
H210        H  0.13294444  0.36364868  0.34027014    -0.01000
C211        C  0.15774325  0.33971496  0.22606840    -0.14700
C212        C  0.14560201  0.39425768  0.22566460    -0.14500
C213        C  0.10514275  0.35469765  0.22300970    -0.14900
C214        C  0.15662100  0.34020882  0.27766291    -0.14800
C215        C  0.14491750  0.39421961  0.27669282    -0.15300
C216        C  0.10402653  0.35502409  0.27402886    -0.14700
C217        C  0.36896324  0.36338162  0.29787940     0.48000
H218        H  0.36839973  0.36181264  0.33934013    -0.01000
C219        C  0.37014978  0.36709355  0.20107877     0.48000
H220        H  0.37114964  0.36868439  0.15968734    -0.01000
C221        C  0.34548655  0.34287275  0.27218665    -0.14700
C222        C  0.36185025  0.39584174  0.27762998    -0.14500
C223        C  0.39897583  0.35292766  0.27478153    -0.14900
C224        C  0.34555820  0.34553316  0.22152366    -0.14800
C225        C  0.36264449  0.39773774  0.22642091    -0.14400
C226        C  0.39952864  0.35435754  0.22368380    -0.14700
C227        C  0.08417857  0.33718092  0.19252011    -0.10700
C228        C  0.06958791  0.32128109  0.16446457    -0.12300
C229        C  0.08109478  0.33912627  0.30278408    -0.10700
C230        C  0.06543887  0.32401168  0.33052167    -0.12300
C231        C  0.07532479  0.17334580  0.33381147    -0.10700
C232        C  0.09034490  0.15766403  0.30603411    -0.12300
C233        C  0.08791528  0.15764228  0.19540810    -0.10700
C234        C  0.07368452  0.17370555  0.16698722    -0.12300
C235        C  0.42587726  0.15317501  0.19507279    -0.10700
C236        C  0.44036946  0.16967600  0.16771849    -0.12300
C237        C  0.42367639  0.15282222  0.30516444    -0.10700
C238        C  0.43841118  0.16856617  0.33335722    -0.12300
C239        C  0.41982058  0.33457350  0.30406017    -0.10700
C240        C  0.43441491  0.31845320  0.33186435    -0.12300
C241        C  0.43447418  0.31939290  0.16579059    -0.10700
C242        C  0.42001141  0.33588811  0.19336776    -0.12300
C243        C  0.34453342  0.07388485  0.30035914    -0.10700
C244        C  0.32857457  0.05883952  0.32791878    -0.12300
C245        C  0.32854467  0.06172830  0.16186032    -0.10700
C246        C  0.34519956  0.07519008  0.19005956    -0.12300
C247        C  0.17897996  0.06027133  0.16344507    -0.10700
C248        C  0.16373848  0.07557476  0.19143123    -0.12300
C249        C  0.18030432  0.05933067  0.32902963    -0.10700
C250        C  0.16541575  0.07542131  0.30166098    -0.12300
C251        C  0.32889711  0.43427829  0.17032432    -0.10700
C252        C  0.34516183  0.42009375  0.19834842    -0.12300
C253        C  0.34445316  0.41706358  0.30813543    -0.10700
C254        C  0.32853933  0.43202263  0.33565535    -0.12300
C255        C  0.17989099  0.42883355  0.33467094    -0.10700
C256        C  0.16344616  0.41471021  0.30681303    -0.12300
C257        C  0.17961575  0.43047645  0.16941121    -0.10700
C258        C  0.16341889  0.41583311  0.19684530    -0.12300
C259        C  0.18543687  0.29486150  0.31061318    -0.13900
C260        C  0.17587905  0.32393159  0.31389627    -0.29100
H261        H  0.18190641  0.28134945  0.27722546     0.15100
H262        H  0.18005456  0.33636719  0.34829977     0.15700
C263        C  0.17226736  0.31474282  0.14725040    -0.13900
C264        C  0.17872797  0.32103701  0.19526778    -0.29100
H265        H  0.15065008  0.32125608  0.13168898     0.15100
H266        H  0.19997754  0.31358284  0.21123534     0.15700
C267        C  0.33566173  0.30503337  0.33691839    -0.13900
C268        C  0.32510471  0.32198203  0.29939037    -0.29100
H269        H  0.35916794  0.30704990  0.34784135     0.15100
H270        H  0.30164306  0.32025350  0.28816477     0.15700
C271        C  0.31535081  0.34036676  0.14621485    -0.13900
C272        C  0.32435334  0.32883967  0.18989787    -0.29100
H273        H  0.32298320  0.36279963  0.13332527     0.15100
H274        H  0.31665986  0.30628221  0.20222418     0.15700
C275        C  0.33112028  0.17076345  0.29965191    -0.13900
C276        C  0.33974329  0.17888979  0.34584484    -0.29100
H277        H  0.30954956  0.17816972  0.28480788     0.15100
H278        H  0.36173867  0.17235313  0.35994784     0.15700
C279        C  0.33287639  0.16634753  0.18124011    -0.13900
C280        C  0.32486263  0.19600334  0.18381328    -0.29100
H281        H  0.32843159  0.15398196  0.14687480     0.15100
H282        H  0.32906519  0.20939057  0.21711246     0.15700
C283        C  0.19514950  0.16103217  0.34493755    -0.13900
C284        C  0.18568829  0.17072513  0.29967915    -0.29100
H285        H  0.18883567  0.13843423  0.35881489     0.15100
H286        H  0.19215066  0.19331497  0.28581123     0.15700
C287        C  0.20547175  0.18117990  0.18347058    -0.13900
C288        C  0.17704057  0.17145479  0.18130953    -0.29100
H289        H  0.21944156  0.17725905  0.21604377     0.15100
H290        H  0.16431573  0.17590178  0.14732466     0.15700
O291        O  0.21186717  0.18718449  0.59709181    -0.72800
O292        O  0.23508157  0.22162974  0.64821530    -0.51700
C293        C  0.21870613  0.19797963  0.64041936     0.81000
O294        O  0.33015863  0.19807940  0.92616025    -0.57400
O295        O  0.29751690  0.21017170  0.86315491    -0.50400
C296        C  0.32171706  0.19797664  0.88006486     0.73000
O297        O  0.31900760  0.20221321  0.59612479    -0.71900
O298        O  0.29282190  0.23431001  0.64718350    -0.52500
C299        C  0.31170552  0.21258197  0.63954755     0.79000
O300        O  0.20894273  0.17478778  0.92665577    -0.57100
O301        O  0.22900116  0.20312463  0.86246859    -0.50200
C302        C  0.21243298  0.18125091  0.87996412     0.75600
Zr303      Zr  0.22276334  0.19559825  0.50830764     2.54700
O304        O  0.24202346  0.14373225  0.51914304    -0.77600
O305        O  0.17129691  0.17868077  0.01213648    -0.91000
Zr306      Zr  0.30998807  0.21298617  0.50767475     2.64700
O307        O  0.32752130  0.16040835  0.51955232    -0.96000
O308        O  0.36159727  0.23345853  0.01803713    -0.78100
O309        O  0.26568372  0.20824411  0.55558849    -0.81400
O310        O  0.26838351  0.19957623  0.95955918    -2.16100
O311        O  0.19461446  0.29188640  0.89619806    -0.64800
O312        O  0.22844172  0.26840049  0.84477336    -0.49400
C313        C  0.20558622  0.28565912  0.85263890     0.74000
O314        O  0.30834639  0.32411483  0.56113406    -0.57700
O315        O  0.28487855  0.29943457  0.62579805    -0.49700
C316        C  0.30268879  0.31989457  0.60751115     0.75800
O317        O  0.32473067  0.29216007  0.91649692    -0.69100
O318        O  0.29361501  0.27555375  0.85547013    -0.47800
C319        C  0.31748124  0.28941162  0.87067756     0.77100
O320        O  0.19214276  0.30775581  0.56572282    -0.64400
O321        O  0.21796595  0.28659732  0.63105626    -0.51600
C322        C  0.19791328  0.30457481  0.61262950     0.75500
Zr323      Zr  0.20509951  0.28302946  0.98536117     2.77500
O324        O  0.18422952  0.33484545  0.47265199    -0.95200
O325        O  0.15501778  0.26056714  0.97998197    -0.76000
Zr326      Zr  0.29266377  0.30187752  0.98718314     2.70100
O327        O  0.27493703  0.34954042  0.94920746    -0.77300
O328        O  0.33478255  0.33729483  0.47442610    -0.96300
Zr329      Zr  0.25711436  0.25744348  0.59058681     2.21500
Zr330      Zr  0.26030260  0.24140161  0.90258805     2.11100
O331        O  0.25001705  0.29037594  0.93832041    -2.45000
O332        O  0.24864836  0.29844124  0.53299575    -0.77100
O333        O  0.21485185  0.23497741  0.94870586    -0.69200
O334        O  0.30256718  0.26201573  0.54393614    -2.30200
O335        O  0.21274830  0.24397818  0.54541000    -2.26400
O336        O  0.30329682  0.25375072  0.95094509    -0.71000
H337        H  0.27202922  0.18054900  0.94205119     0.81000
H338        H  0.31967469  0.26671791  0.56472588     0.82100
H339        H  0.24787579  0.30598718  0.91281321     0.84300
H340        H  0.19546362  0.24257352  0.56731981     0.81900
H341        H  0.36606564  0.23708246  0.47598198     0.44900
H342        H  0.35441778  0.32068383  0.98977011     0.43900
H343        H  0.25627586  0.35385888  0.46730425     0.43600
H344        H  0.19155782  0.34271969  0.94558371     0.41500
H345        H  0.15107892  0.25855898  0.94377047     0.44700
H346        H  0.16163033  0.19022782  0.54031373     0.39400
H347        H  0.24790739  0.14239179  0.55473585     0.45600
H348        H  0.32772571  0.15148396  0.98444743     0.42000
H349        H  0.16172275  0.33044610  0.97007336     0.46900
H350        H  0.17289691  0.15656246  0.53166696     0.45600
H351        H  0.34964933  0.16221246  0.52270859     0.45800
H352        H  0.33745059  0.34648794  0.96000154     0.46100
O353        O  0.19387760  0.43549618  0.58627512    -0.72800
O354        O  0.21909885  0.46321843  0.64535123    -0.51700
C355        C  0.19941171  0.44323186  0.63166119     0.81000
O356        O  0.31571527  0.43787644  0.91900086    -0.57400
O357        O  0.28866507  0.46321803  0.85887619    -0.50400
C358        C  0.30957150  0.44461519  0.87326663     0.73000
O359        O  0.31663473  0.44095621  0.58597085    -0.71900
O360        O  0.28810316  0.46506092  0.64517375    -0.52500
C361        C  0.30973183  0.44722948  0.63150189     0.79000
O362        O  0.19014434  0.43790226  0.91878872    -0.57100
O363        O  0.21779012  0.46258721  0.85848539    -0.50200
C364        C  0.19649096  0.44432708  0.87296924     0.75600
Zr365      Zr  0.21072514  0.44864995  0.50168607     2.54700
O366        O  0.21994229  0.39359999  0.50266149    -0.77600
O367        O  0.15483936  0.44376838  0.00094583    -0.91000
Zr368      Zr  0.29919215  0.45409513  0.50191475     2.64700
O369        O  0.30006441  0.39820766  0.50394063    -0.96000
O370        O  0.35290167  0.44996270  0.99776212    -0.78100
O371        O  0.25491084  0.45086147  0.55153396    -0.81400
O372        O  0.25395531  0.44942723  0.95245187    -2.16100
O373        O  0.18976723  0.04964822  0.91278272    -0.64800
O374        O  0.21838596  0.02563642  0.85355414    -0.49400
C375        C  0.19700031  0.04371772  0.86732228     0.74000
O376        O  0.31463633  0.05588108  0.57869703    -0.57700
O377        O  0.28848846  0.02960247  0.63911285    -0.49700
C378        C  0.30879723  0.04889170  0.62453337     0.75800
O379        O  0.31414391  0.05396166  0.91178554    -0.69100
O380        O  0.28751474  0.02754504  0.85293083    -0.47800
C381        C  0.30799986  0.04679018  0.86643007     0.77100
O382        O  0.19231470  0.05331818  0.57941258    -0.64400
O383        O  0.21955650  0.02810143  0.63939545    -0.51600
C384        C  0.19881775  0.04688400  0.62509719     0.75500
Zr385      Zr  0.20705819  0.03688312  0.99679081     2.77500
O386        O  0.20827981  0.09374345  0.48837197    -0.95200
O387        O  0.15367030  0.03687363  0.50019110    -0.76000
Zr388      Zr  0.29583536  0.04232863  0.99584638     2.70100
O389        O  0.28531597  0.09717510  0.99187547    -0.77300
O390        O  0.35173212  0.04730619  0.49995997    -0.96300
Zr391      Zr  0.25268056  0.49729557  0.59891596     2.21500
Zr392      Zr  0.25293812  0.49582850  0.90357728     2.11100
O393        O  0.25138472  0.03981154  0.94699263    -2.45000
O394        O  0.25288714  0.04111996  0.54532228    -0.77100
O395        O  0.20814559  0.49470170  0.95256884    -0.69200
O396        O  0.29744387  0.49943422  0.54974592    -2.30200
O397        O  0.20761973  0.49385289  0.55041088    -2.26400
O398        O  0.29771613  0.49683669  0.95278808    -0.71000
H399        H  0.25430690  0.43150230  0.93135654     0.81000
H400        H  0.31525200  0.50001401  0.57033761     0.82100
H401        H  0.25047583  0.05751150  0.92513071     0.84300
H402        H  0.18992596  0.49295904  0.57142640     0.81900
H403        H  0.35758894  0.47904094  0.48399055     0.44900
H404        H  0.35886778  0.03800730  0.97440223     0.43900
H405        H  0.29771199  0.10478941  0.52034753     0.43600
H406        H  0.21194377  0.09869618  0.96138806     0.41500
H407        H  0.14826750  0.01545423  0.97175644     0.44700
H408        H  0.14818494  0.45126452  0.52805593     0.39400
H409        H  0.20759789  0.38551880  0.53067775     0.45600
H410        H  0.31507731  0.38993871  0.02366301     0.42000
H411        H  0.18067650  0.09635632  0.98844644     0.46900
H412        H  0.15314338  0.41929965  0.50253400     0.45600
H413        H  0.28657169  0.39244454  0.53201110     0.45800
H414        H  0.35290500  0.07249598  0.98815212     0.46100
O415        O  0.44161404  0.30611396  0.58288602    -0.72800
O416        O  0.46912017  0.28095835  0.64252685    -0.51700
C417        C  0.44937671  0.30087669  0.62846302     0.81000
O418        O  0.44870072  0.17927197  0.91695450    -0.57400
O419        O  0.47104226  0.20907961  0.85677865    -0.50400
C420        C  0.45383004  0.18677421  0.87114989     0.73000
O421        O  0.44938888  0.18030213  0.58476028    -0.71900
O422        O  0.47184835  0.21064722  0.64336243    -0.52500
C423        C  0.45501890  0.18800641  0.63005431     0.79000
O424        O  0.44411900  0.30676261  0.91497413    -0.57100
O425        O  0.46978275  0.27963531  0.85568300    -0.50200
C426        C  0.45093010  0.30048256  0.86946786     0.75600
Zr427      Zr  0.45524656  0.28869782  0.49891525     2.54700
O428        O  0.40073226  0.28380579  0.49699686    -0.77600
O429        O  0.45159528  0.34454339  0.99743957    -0.91000
Zr430      Zr  0.46176559  0.19755968  0.50033326     2.64700
O431        O  0.40753220  0.18993568  0.50424767    -0.96000
O432        O  0.46827360  0.14227338  0.00419332    -0.78100
O433        O  0.45750682  0.24324360  0.54863641    -0.81400
O434        O  0.45799075  0.24306785  0.95066582    -2.16100
O435        O  0.05698547  0.31223564  0.91332493    -0.64800
O436        O  0.03495589  0.28189316  0.85424444    -0.49400
C437        C  0.05113171  0.30493174  0.86792254     0.74000
O438        O  0.06775196  0.18824744  0.58387887    -0.57700
O439        O  0.03900442  0.21233252  0.64275721    -0.49700
C440        C  0.05962554  0.19326328  0.62925909     0.75800
O441        O  0.06629526  0.18428591  0.91572494    -0.69100
O442        O  0.04001320  0.21031934  0.85552570    -0.47800
C443        C  0.05944641  0.19016032  0.87001903     0.77100
O444        O  0.05905248  0.31170278  0.58158514    -0.64400
O445        O  0.03572236  0.28245957  0.64151867    -0.51600
C446        C  0.05321227  0.30454875  0.62729657     0.75500
Zr447      Zr  0.04654312  0.29313659  0.99739741     2.77500
O448        O  0.10112796  0.29742701  0.99374647    -0.95200
O449        O  0.04012066  0.34871174  0.99890516    -0.76000
Zr450      Zr  0.05287334  0.20245624  0.99887758     2.70100
O451        O  0.10719745  0.20951198  0.99475114    -0.77300
O452        O  0.05625136  0.14826526  0.50727697    -0.96300
Zr453      Zr  0.00474383  0.24561210  0.59593852     2.21500
Zr454      Zr  0.00535308  0.24396288  0.90047010     2.11100
O455        O  0.05058451  0.24770069  0.94884694    -2.45000
O456        O  0.05011975  0.24957893  0.54794686    -0.77100
O457        O  0.00230731  0.28973777  0.94865425    -0.69200
O458        O  0.00834458  0.19985905  0.54766379    -2.30200
O459        O  0.00081282  0.29140420  0.54652006    -2.26400
O460        O  0.00851705  0.19829705  0.95002482    -0.71000
H461        H  0.44046028  0.24205029  0.92943684     0.81000
H462        H  0.00968258  0.18188713  0.56888136     0.82100
H463        H  0.06810120  0.24894317  0.92740569     0.84300
H464        H  0.99946530  0.30932862  0.56739676     0.81900
H465        H  0.48092757  0.13805791  0.46872294     0.44900
H466        H  0.04741115  0.13880956  0.97391748     0.43900
H467        H  0.11231423  0.22007575  0.52941913     0.43600
H468        H  0.10507029  0.31980880  0.99538093     0.41500
H469        H  0.02321252  0.35277738  0.97572328     0.44700
H470        H  0.46199267  0.35177201  0.52710913     0.39400
H471        H  0.39338331  0.29838347  0.52248635     0.45600
H472        H  0.40105771  0.19767135  0.96441706     0.42000
H473        H  0.10808971  0.28931720  0.02637708     0.46900
H474        H  0.43150561  0.34968417  0.49782080     0.45600
H475        H  0.40513327  0.16802866  0.51376043     0.45800
H476        H  0.07853683  0.14232420  0.00092708     0.46100
C477        C  0.13945037  0.12972198  0.69835442     0.48000
H478        H  0.13812862  0.12937132  0.65685553    -0.01000
C479        C  0.14220593  0.12999037  0.79497785     0.48000
H480        H  0.14245738  0.12984891  0.83642165    -0.01000
C481        C  0.16272171  0.15241841  0.71859096    -0.14700
C482        C  0.11006505  0.13999543  0.72314104    -0.14500
C483        C  0.14887489  0.09867722  0.72103571    -0.14900
C484        C  0.16503744  0.15226666  0.77002580    -0.14800
C485        C  0.11140841  0.14005956  0.77414010    -0.14400
C486        C  0.14987463  0.09871283  0.77207019    -0.14700
C487        C  0.37415805  0.12711626  0.69811951     0.48000
H488        H  0.37579274  0.12651314  0.65665378    -0.01000
C489        C  0.37112097  0.12807202  0.79462849     0.48000
H490        H  0.36991938  0.12746272  0.83604490    -0.01000
C491        C  0.35204562  0.15123847  0.71771898    -0.14700
C492        C  0.36233721  0.09700557  0.72077603    -0.14500
C493        C  0.40416470  0.13544308  0.72348490    -0.14900
C494        C  0.35079978  0.15235403  0.76917750    -0.14800
C495        C  0.36087213  0.09742502  0.77177965    -0.14400
C496        C  0.40262894  0.13582362  0.77455919    -0.14700
C497        C  0.13498372  0.36324209  0.70200834     0.48000
H498        H  0.13453889  0.36456397  0.66069620    -0.01000
C499        C  0.13283562  0.36246817  0.79860411     0.48000
H500        H  0.13182285  0.36228738  0.84013596    -0.01000
C501        C  0.15490676  0.33773981  0.72516603    -0.14700
C502        C  0.14667737  0.39288436  0.72598239    -0.14500
C503        C  0.10336670  0.35651286  0.72295541    -0.14900
C504        C  0.15291831  0.33704041  0.77677933    -0.14800
C505        C  0.14576660  0.39253279  0.77693792    -0.15300
C506        C  0.10222478  0.35652688  0.77403030    -0.14700
C507        C  0.36964342  0.36247221  0.79673358     0.48000
H508        H  0.36854730  0.36068867  0.83814112    -0.01000
C509        C  0.37191825  0.36703824  0.70014789     0.48000
H510        H  0.37363014  0.36912621  0.65888102    -0.01000
C511        C  0.34742972  0.34112263  0.76967885    -0.14700
C512        C  0.36152690  0.39473895  0.77678925    -0.14500
C513        C  0.40032736  0.35337492  0.77476972    -0.14900
C514        C  0.34804384  0.34422064  0.71903988    -0.14800
C515        C  0.36270240  0.39707731  0.72568746    -0.14400
C516        C  0.40138501  0.35528665  0.72371988    -0.14700
C517        C  0.08217059  0.33915239  0.69273839    -0.10700
C518        C  0.06770306  0.32303737  0.66489880    -0.12300
C519        C  0.07944511  0.34000775  0.80225667    -0.10700
C520        C  0.06459572  0.32400949  0.82992049    -0.12300
C521        C  0.07515721  0.17253297  0.83272214    -0.10700
C522        C  0.09040848  0.15713454  0.80498607    -0.12300
C523        C  0.08893768  0.15866771  0.69476813    -0.10700
C524        C  0.07456895  0.17523810  0.66724208    -0.12300
C525        C  0.42624731  0.15315283  0.69559710    -0.10700
C526        C  0.44095466  0.16951412  0.66825250    -0.12300
C527        C  0.42362619  0.15311245  0.80551807    -0.10700
C528        C  0.43854611  0.16871927  0.83362352    -0.12300
C529        C  0.42109282  0.33481126  0.80416597    -0.10700
C530        C  0.43589004  0.31857365  0.83162881    -0.12300
C531        C  0.43513534  0.31957124  0.66607792    -0.10700
C532        C  0.42157031  0.33644483  0.69399627    -0.12300
C533        C  0.34211345  0.07648523  0.80077988    -0.10700
C534        C  0.32588547  0.06176117  0.82836311    -0.12300
C535        C  0.32716062  0.06347213  0.66202928    -0.10700
C536        C  0.34365147  0.07698952  0.69042640    -0.12300
C537        C  0.18108851  0.06205481  0.66273639    -0.10700
C538        C  0.16561432  0.07692712  0.69087597    -0.12300
C539        C  0.18000644  0.05949170  0.82934140    -0.10700
C540        C  0.16565201  0.07570969  0.80139875    -0.12300
C541        C  0.32812413  0.43309764  0.66963741    -0.10700
C542        C  0.34451605  0.41888292  0.69751521    -0.12300
C543        C  0.34374059  0.41536183  0.80760314    -0.10700
C544        C  0.32779408  0.42981899  0.83570228    -0.12300
C545        C  0.17832511  0.42914366  0.83558545    -0.10700
C546        C  0.16284704  0.41384141  0.80785487    -0.12300
C547        C  0.18148851  0.42842310  0.66956881    -0.10700
C548        C  0.16523957  0.41392424  0.69723635    -0.12300
C549        C  0.19238443  0.30123760  0.80889368    -0.13900
C550        C  0.16507929  0.31397626  0.81203550    -0.29100
H551        H  0.20657738  0.30498676  0.77639367     0.15100
H552        H  0.15206732  0.31061133  0.84610617     0.15700
C553        C  0.18090228  0.32439233  0.64664673    -0.13900
C554        C  0.17276588  0.31632273  0.69347473    -0.29100
H555        H  0.17515523  0.34673873  0.63147920     0.15100
H556        H  0.17883597  0.29379072  0.70783520     0.15700
C557        C  0.33792580  0.30401321  0.83541569    -0.13900
C558        C  0.32750124  0.31948745  0.79612686    -0.29100
H559        H  0.36132431  0.30664526  0.84662287     0.15100
H560        H  0.30410424  0.31735038  0.78470874     0.15700
C561        C  0.31951259  0.33881730  0.64198560    -0.13900
C562        C  0.32782152  0.32725858  0.68609308    -0.29100
H563        H  0.32733740  0.36117851  0.62916325     0.15100
H564        H  0.31981659  0.30475868  0.69815365     0.15700
C565        C  0.33186443  0.17313952  0.79915939    -0.13900
C566        C  0.34122136  0.18197115  0.84465389    -0.29100
H567        H  0.30984017  0.17977866  0.78519107     0.15100
H568        H  0.36361643  0.17598338  0.85769762     0.15700
C569        C  0.33392962  0.16827534  0.68062554    -0.13900
C570        C  0.32562737  0.19779751  0.68353571    -0.29100
H571        H  0.32985223  0.15605004  0.64599891     0.15100
H572        H  0.32930865  0.21103738  0.71715722     0.15700
C573        C  0.19555129  0.16184174  0.84497774    -0.13900
C574        C  0.18579602  0.17163614  0.80001745    -0.29100
H575        H  0.18936367  0.13912659  0.85855811     0.15100
H576        H  0.19209027  0.19429848  0.78627778     0.15700
C577        C  0.20606496  0.18232654  0.68424002    -0.13900
C578        C  0.17761243  0.17267246  0.68200090    -0.29100
H579        H  0.22006716  0.17829326  0.71675071     0.15100
H580        H  0.16485744  0.17725032  0.64809258     0.15700
O581        O  0.20416117  0.67004304  0.06070307    -0.72800
O582        O  0.21312441  0.70501433  0.12192370    -0.51700
C583        C  0.20195578  0.67978137  0.10563036     0.81000
O584        O  0.31266242  0.68616815  0.41007287    -0.57400
O585        O  0.28565987  0.71389777  0.35313405    -0.50400
C586        C  0.30440991  0.69259788  0.36542819     0.73000
O587        O  0.31262753  0.69747337  0.09343461    -0.71900
O588        O  0.27511018  0.71604963  0.14293345    -0.52500
C589        C  0.29933731  0.70069852  0.13578971     0.79000
O590        O  0.20483599  0.67115787  0.41657618    -0.57100
O591        O  0.22146876  0.70638343  0.35894148    -0.50200
C592        C  0.20746372  0.68161945  0.37205901     0.75600
Zr593      Zr  0.22264347  0.69041036  0.98211536     2.54700
O594        O  0.24532687  0.64018748  0.97167555    -0.77600
O595        O  0.16548366  0.67214709  0.50131236    -0.91000
Zr596      Zr  0.30782831  0.71296107  0.00680250     2.64700
O597        O  0.32911702  0.66165222  0.01551931    -0.96000
O598        O  0.35348220  0.73229168  0.49222065    -0.78100
O599        O  0.26037915  0.70008712  0.04198455    -0.81400
O600        O  0.26083547  0.69614158  0.44866112    -2.16100
O601        O  0.18011494  0.78642117  0.42661858    -0.64800
O602        O  0.21232632  0.77257769  0.36399288    -0.49400
C603        C  0.18812312  0.78528004  0.38043102     0.74000
O604        O  0.29345284  0.81227164  0.09234940    -0.57700
O605        O  0.26494485  0.78119931  0.14277567    -0.49700
C606        C  0.28399488  0.80293351  0.13555846     0.75800
O607        O  0.29869517  0.81395203  0.42622745    -0.69100
O608        O  0.28054047  0.78329162  0.36401997    -0.47800
C609        C  0.29541291  0.80667016  0.38006115     0.77100
O610        O  0.17833988  0.79483630  0.05541944    -0.64400
O611        O  0.20335305  0.77272153  0.12078335    -0.51600
C612        C  0.18292151  0.79015859  0.10233289     0.75500
Zr613      Zr  0.19964480  0.77306574  0.50912393     2.77500
O614        O  0.17737050  0.82878412  0.96665948    -0.95200
O615        O  0.14873445  0.75240613  0.51414325    -0.76000
Zr616      Zr  0.28668781  0.79296769  0.50837095     2.70100
O617        O  0.26439276  0.84349630  0.51893121    -0.77300
O618        O  0.33532988  0.82397950  0.01398803    -0.96300
Zr619      Zr  0.24415006  0.74448115  0.08530827     2.21500
Zr620      Zr  0.25129325  0.74328707  0.40571082     2.11100
O621        O  0.24245789  0.78592697  0.45984746    -2.45000
O622        O  0.23760417  0.79005834  0.03706376    -0.77100
O623        O  0.20816473  0.73115194  0.45535420    -0.69200
O624        O  0.29272187  0.75617805  0.05253584    -2.30200
O625        O  0.20531168  0.73373028  0.02686935    -2.26400
O626        O  0.29641799  0.75190951  0.45192756    -0.71000
H627        H  0.26204914  0.67879559  0.42651448     0.81000
H628        H  0.30747359  0.75914065  0.07851098     0.82100
H629        H  0.23849479  0.80440657  0.44074137     0.84300
H630        H  0.18633747  0.72938122  0.04329588     0.81900
H631        H  0.36430245  0.72415075  0.05371513     0.44900
H632        H  0.34765496  0.80452915  0.47908575     0.43900
H633        H  0.26256509  0.85714197  0.04146951     0.43600
H634        H  0.18896556  0.83562375  0.48087717     0.41500
H635        H  0.14584077  0.74628743  0.54950961     0.44700
H636        H  0.17411722  0.65095807  0.95324180     0.39400
H637        H  0.25147174  0.63466135  0.00607224     0.45600
H638        H  0.32957851  0.64458467  0.48168584     0.42000
H639        H  0.15979766  0.82447922  0.50873332     0.46900
H640        H  0.15973839  0.68306547  0.96442775     0.45600
H641        H  0.35118641  0.66492244  0.01594039     0.45800
H642        H  0.33675778  0.83422271  0.50664886     0.46100
O643        O  0.19677470  0.93191724  0.08379709    -0.72800
O644        O  0.22133465  0.96069362  0.14219176    -0.51700
C645        C  0.20221283  0.94000642  0.12900772     0.81000
O646        O  0.31857533  0.93819138  0.41375076    -0.57400
O647        O  0.28912357  0.96089031  0.35411118    -0.50400
C648        C  0.31106598  0.94355437  0.36814232     0.73000
O649        O  0.31671103  0.93615985  0.08036075    -0.71900
O650        O  0.28961819  0.96175325  0.13982985    -0.52500
C651        C  0.31020681  0.94274278  0.12588383     0.79000
O652        O  0.19423729  0.93218322  0.41678182    -0.57100
O653        O  0.21988953  0.95874474  0.35605944    -0.50200
C654        C  0.20005622  0.93898226  0.37089391     0.75600
Zr655      Zr  0.21166313  0.94652352  0.99900151     2.54700
O656        O  0.21200384  0.89065551  0.00029711    -0.77600
O657        O  0.15694091  0.94215341  0.49808203    -0.91000
Zr658      Zr  0.30090722  0.95155670  0.99675847     2.64700
O659        O  0.30588324  0.89595671  0.99441930    -0.96000
O660        O  0.35520662  0.95462847  0.49815728    -0.78100
O661        O  0.25662225  0.94851428  0.04690136    -0.81400
O662        O  0.25577663  0.94759891  0.44940220    -2.16100
O663        O  0.18933722  0.55506756  0.41769272    -0.64800
O664        O  0.21714971  0.53036261  0.35820056    -0.49400
C665        C  0.19619227  0.54901564  0.37206818     0.74000
O666        O  0.31417046  0.55564537  0.08419199    -0.57700
O667        O  0.28753246  0.52970994  0.14434589    -0.49700
C668        C  0.30828771  0.54852627  0.12993694     0.75800
O669        O  0.31193326  0.55830880  0.41715875    -0.69100
O670        O  0.28624673  0.53159340  0.35757504    -0.47800
C671        C  0.30625208  0.55119815  0.37157416     0.77100
O672        O  0.18945722  0.55424981  0.08369041    -0.64400
O673        O  0.21739645  0.52984810  0.14359158    -0.51600
C674        C  0.19607407  0.54799046  0.12938218     0.75500
Zr675      Zr  0.20490044  0.53887726  0.50132736     2.77500
O676        O  0.20257290  0.59571382  0.99680393    -0.95200
O677        O  0.15277763  0.53230166  0.00337916    -0.76000
Zr678      Zr  0.29458140  0.54495208  0.50135237     2.70100
O679        O  0.29007554  0.60061794  0.50222230    -0.77300
O680        O  0.35144949  0.54321836  0.00370902    -0.96300
Zr681      Zr  0.25439269  0.99483477  0.09464714     2.21500
Zr682      Zr  0.25408798  0.99343282  0.39974589     2.11100
O683        O  0.24982153  0.54328811  0.45271987    -2.45000
O684        O  0.25174575  0.54309608  0.04955429    -0.77100
O685        O  0.20933671  0.99194779  0.44933421    -0.69200
O686        O  0.29892650  0.99689194  0.04465621    -2.30200
O687        O  0.20928044  0.99196651  0.04669258    -2.26400
O688        O  0.29909909  0.99573067  0.44791040    -0.71000
H689        H  0.25626808  0.92962736  0.42845219     0.81000
H690        H  0.31675557  0.99748498  0.06518658     0.82100
H691        H  0.24892899  0.56135771  0.43154573     0.84300
H692        H  0.19175182  0.99125111  0.06807718     0.81900
H693        H  0.36416232  0.94004556  0.99707333     0.44900
H694        H  0.35626738  0.53620101  0.47358737     0.43900
H695        H  0.29782137  0.60364399  0.96246984     0.43600
H696        H  0.16665081  0.59140347  0.50416026     0.41500
H697        H  0.14093915  0.53851670  0.51294619     0.44700
H698        H  0.15125781  0.95901968  0.03066903     0.39400
H699        H  0.19208428  0.88479557  0.01417085     0.45600
H700        H  0.29079312  0.88956462  0.46264542     0.42000
H701        H  0.19495992  0.60033244  0.53566160     0.46900
H702        H  0.15031998  0.92690013  0.00462373     0.45600
H703        H  0.32785516  0.89236069  0.99678521     0.45800
H704        H  0.35389135  0.57000342  0.49313651     0.46100
O705        O  0.44328800  0.80430388  0.08370000    -0.72800
O706        O  0.47068167  0.77883580  0.14320815    -0.51700
C707        C  0.45076269  0.79860686  0.12925890     0.81000
O708        O  0.44996764  0.67747029  0.41749624    -0.57400
O709        O  0.47326848  0.70645840  0.35709925    -0.50400
C710        C  0.45566544  0.68452919  0.37166143     0.73000
O711        O  0.44920612  0.67972722  0.08358473    -0.71900
O712        O  0.47325776  0.70825036  0.14291869    -0.52500
C713        C  0.45557042  0.68641586  0.12912376     0.79000
O714        O  0.44246871  0.80311519  0.41642375    -0.57100
O715        O  0.46857412  0.77680180  0.35663915    -0.50200
C716        C  0.44888254  0.79680740  0.37077482     0.75600
Zr717      Zr  0.45731472  0.78781888  0.99954466     2.54700
O718        O  0.40329885  0.77830856  0.99763820    -0.77600
O719        O  0.45026898  0.84174726  0.49536235    -0.91000
Zr720      Zr  0.46294713  0.69732202  0.99967033     2.64700
O721        O  0.40827619  0.69403450  0.99563579    -0.96000
O722        O  0.47187160  0.64035741  0.50122370    -0.78100
O723        O  0.45916099  0.74234990  0.04920152    -0.81400
O724        O  0.45938162  0.74087829  0.45095516    -2.16100
O725        O  0.05804217  0.80994580  0.41202165    -0.64800
O726        O  0.03462737  0.78042132  0.35335456    -0.49400
C727        C  0.05241645  0.80233167  0.36668941     0.74000
O728        O  0.06160003  0.68677828  0.08415239    -0.57700
O729        O  0.03495815  0.71325615  0.14313898    -0.49700
C730        C  0.05421067  0.69277790  0.12957798     0.75800
O731        O  0.05876623  0.68263328  0.41465781    -0.69100
O732        O  0.03391210  0.71015732  0.35454621    -0.47800
C733        C  0.05221947  0.68897387  0.36901528     0.77100
O734        O  0.05928453  0.81100409  0.07902849    -0.64400
O735        O  0.03509012  0.78308977  0.13978335    -0.51600
C736        C  0.05342431  0.80427828  0.12495517     0.75500
Zr737      Zr  0.04504400  0.79251481  0.49608699     2.77500
O738        O  0.09981924  0.79293716  0.49524985    -0.95200
O739        O  0.04015562  0.84823181  0.49261370    -0.76000
Zr740      Zr  0.04760020  0.70168989  0.49814821     2.70100
O741        O  0.10230026  0.70530772  0.49297030    -0.77300
O742        O  0.05017925  0.64712721  0.00209070    -0.96300
Zr743      Zr  0.00201576  0.74751217  0.09594157     2.21500
Zr744      Zr  0.00154254  0.74547301  0.40005398     2.11100
O745        O  0.04700038  0.74687904  0.44792728    -2.45000
O746        O  0.04726729  0.74885897  0.04715563    -0.77100
O747        O  0.00052432  0.79136675  0.44784270    -0.69200
O748        O  0.00412727  0.70122693  0.04867321    -2.30200
O749        O  0.00024744  0.79285747  0.04507369    -2.26400
O750        O  0.00293439  0.69990995  0.45004782    -0.71000
H751        H  0.44170566  0.73966922  0.43001986     0.81000
H752        H  0.00480097  0.68335968  0.07022919     0.82100
H753        H  0.06446452  0.74718452  0.42637045     0.84300
H754        H  0.00000278  0.81118305  0.06515934     0.81900
H755        H  0.49071820  0.63843471  0.00620062     0.44900
H756        H  0.03271174  0.63911411  0.47827427     0.43900
H757        H  0.10816074  0.71466051  0.03403184     0.43600
H758        H  0.10551157  0.78674250  0.46099064     0.41500
H759        H  0.06053431  0.85609385  0.50047117     0.44700
H760        H  0.46368925  0.85108253  0.02605563     0.39400
H761        H  0.39910323  0.77139717  0.96319303     0.45600
H762        H  0.40229164  0.69445336  0.46942275     0.42000
H763        H  0.10518602  0.81500544  0.49687491     0.46900
H764        H  0.42990174  0.84681879  0.01034529     0.45600
H765        H  0.40424337  0.67193217  0.99003979     0.45800
H766        H  0.06734900  0.63949268  0.48977907     0.46100
C767        C  0.13353819  0.62906421  0.19877199     0.48000
H768        H  0.13182103  0.62754984  0.15749937    -0.01000
C769        C  0.13600964  0.63188760  0.29541625     0.48000
H770        H  0.13687233  0.63322698  0.33684438    -0.01000
C771        C  0.15605652  0.65311229  0.21769221    -0.14700
C772        C  0.10363893  0.63866825  0.22312891    -0.14500
C773        C  0.14426108  0.59899917  0.22370205    -0.14900
C774        C  0.15720395  0.65477476  0.26850924    -0.14800
C775        C  0.10481947  0.63956569  0.27412015    -0.14400
C776        C  0.14551709  0.60047862  0.27478673    -0.14700
C777        C  0.37476176  0.62732815  0.19812330     0.48000
H778        H  0.37685141  0.62495798  0.15690783    -0.01000
C779        C  0.36982047  0.63238898  0.29424526     0.48000
H780        H  0.36782970  0.63465934  0.33546168    -0.01000
C781        C  0.35433511  0.65381994  0.21402501    -0.14700
C782        C  0.36079323  0.59887388  0.22370229    -0.14500
C783        C  0.40471649  0.63468216  0.22397721    -0.14900
C784        C  0.35145661  0.65654571  0.26472605    -0.14800
C785        C  0.35840530  0.60145812  0.27443494    -0.14400
C786        C  0.40225042  0.63689937  0.27491154    -0.14700
C787        C  0.13744965  0.85966826  0.19812989     0.48000
H788        H  0.13694367  0.86223594  0.15690034    -0.01000
C789        C  0.13815564  0.85635869  0.29483656     0.48000
H790        H  0.13829310  0.85579367  0.33627676    -0.01000
C791        C  0.15720309  0.83330553  0.21824748    -0.14700
C792        C  0.15022304  0.88850506  0.22317991    -0.14500
C793        C  0.10641988  0.85274471  0.22098388    -0.14900
C794        C  0.15792739  0.83169843  0.26959647    -0.14800
C795        C  0.15042294  0.88688856  0.27407415    -0.15300
C796        C  0.10674135  0.85109408  0.27214494    -0.14700
C797        C  0.36538296  0.85761580  0.29523614     0.48000
H798        H  0.36486094  0.85718550  0.33667406    -0.01000
C799        C  0.36869187  0.85906699  0.19857818     0.48000
H800        H  0.37019530  0.85972422  0.15708937    -0.01000
C801        C  0.34202320  0.83647942  0.26965379    -0.14700
C802        C  0.35868081  0.88944898  0.27267671    -0.14500
C803        C  0.39604782  0.84695389  0.27463378    -0.14900
C804        C  0.34455504  0.83691575  0.21837332    -0.14800
C805        C  0.35989904  0.89009165  0.22155112    -0.14400
C806        C  0.39775165  0.84796802  0.22369627    -0.14700
C807        C  0.08411113  0.83699558  0.19076688    -0.10700
C808        C  0.06891165  0.82203458  0.16234582    -0.12300
C809        C  0.08394660  0.83483482  0.30104083    -0.10700
C810        C  0.06799781  0.81974331  0.32854680    -0.12300
C811        C  0.06739572  0.67103548  0.33174668    -0.10700
C812        C  0.08298729  0.65592498  0.30424423    -0.12300
C813        C  0.08259933  0.65732422  0.19467609    -0.10700
C814        C  0.06846791  0.67427742  0.16752582    -0.12300
C815        C  0.42730051  0.65147527  0.19554684    -0.10700
C816        C  0.44164576  0.66762539  0.16725194    -0.12300
C817        C  0.42445617  0.65227756  0.30589438    -0.10700
C818        C  0.44020507  0.66676612  0.33418229    -0.12300
C819        C  0.41693618  0.82941629  0.30555795    -0.10700
C820        C  0.43244437  0.81393808  0.33319892    -0.12300
C821        C  0.43540981  0.81609592  0.16709189    -0.10700
C822        C  0.42006817  0.83130369  0.19493629    -0.12300
C823        C  0.33992959  0.58129956  0.30545281    -0.10700
C824        C  0.32405271  0.56663478  0.33375743    -0.12300
C825        C  0.32680876  0.56286464  0.16735125    -0.10700
C826        C  0.34300324  0.57733378  0.19487649    -0.12300
C827        C  0.17782100  0.56262808  0.16703652    -0.10700
C828        C  0.16183137  0.57725232  0.19479644    -0.12300
C829        C  0.17872031  0.56461256  0.33403359    -0.10700
C830        C  0.16318248  0.57947078  0.30556304    -0.12300
C831        C  0.32776926  0.92738991  0.16372423    -0.10700
C832        C  0.34322221  0.91223477  0.19170146    -0.12300
C833        C  0.34291953  0.91225180  0.30220267    -0.10700
C834        C  0.32841615  0.92810769  0.33032040    -0.12300
C835        C  0.18280606  0.92285575  0.33361913    -0.10700
C836        C  0.16772712  0.90761915  0.30537283    -0.12300
C837        C  0.18474639  0.92478596  0.16720783    -0.10700
C838        C  0.16863511  0.90994636  0.19472535    -0.12300
C839        C  0.16790435  0.80084858  0.34499125    -0.13900
C840        C  0.17641397  0.80960625  0.29888872    -0.29100
H841        H  0.14590943  0.80743611  0.35914692     0.15100
H842        H  0.19807780  0.80239389  0.28417992     0.15700
C843        C  0.16414645  0.80720150  0.13753897    -0.13900
C844        C  0.17315083  0.81186792  0.18485483    -0.29100
H845        H  0.14371837  0.81759044  0.12312874     0.15100
H846        H  0.19329749  0.80060078  0.19871337     0.15700
C847        C  0.31100891  0.82679006  0.34406637    -0.13900
C848        C  0.32023694  0.81754922  0.29872177    -0.29100
H849        H  0.31752474  0.84928951  0.35766338     0.15100
H850        H  0.31313705  0.79546432  0.28414875     0.15700
C851        C  0.29777696  0.81675664  0.17990645    -0.13900
C852        C  0.32784266  0.81834154  0.18201786    -0.29100
H853        H  0.28373697  0.82545608  0.20991357     0.15100
H854        H  0.34096169  0.80953835  0.15086290     0.15700
C855        C  0.33354612  0.68028888  0.29024362    -0.13900
C856        C  0.31594229  0.67150815  0.32804807    -0.29100
H857        H  0.33608188  0.70438792  0.28012324     0.15100
H858        H  0.31429984  0.64717326  0.33736420     0.15700
C859        C  0.34079127  0.67377603  0.17584473    -0.13900
C860        C  0.31276108  0.68504993  0.17890613    -0.29100
H861        H  0.35372203  0.67663180  0.14159747     0.15100
H862        H  0.29897132  0.68140565  0.21193110     0.15700
C863        C  0.19260619  0.66283792  0.33491755    -0.13900
C864        C  0.17820306  0.67466922  0.29581953    -0.29100
H865        H  0.18985190  0.63858941  0.34406503     0.15100
H866        H  0.18048736  0.69880781  0.28579992     0.15700
C867        C  0.18444807  0.66076967  0.14019107    -0.13900
C868        C  0.17557851  0.67144346  0.18456858    -0.29100
H869        H  0.17796277  0.63795100  0.12801452     0.15100
H870        H  0.18294046  0.69392604  0.19706746     0.15700
O871        O  0.20957387  0.66252593  0.58087048    -0.72800
O872        O  0.22685908  0.69478697  0.64129752    -0.51700
C873        C  0.21246701  0.67096925  0.62635266     0.81000
O874        O  0.33318955  0.69950652  0.92986356    -0.57400
O875        O  0.30549570  0.71659256  0.86361425    -0.50400
C876        C  0.32763898  0.70169904  0.88302881     0.73000
O877        O  0.31348155  0.67697946  0.57069258    -0.71900
O878        O  0.29310966  0.70332018  0.63587409    -0.52500
C879        C  0.30978706  0.68219631  0.61726511     0.79000
O880        O  0.21017664  0.68248557  0.89550905    -0.57100
O881        O  0.23991737  0.71034542  0.84258338    -0.50200
C882        C  0.21908466  0.69060107  0.85170461     0.75600
Zr883      Zr  0.21893715  0.68511802  0.49961433     2.54700
O884        O  0.23632381  0.63245049  0.49151757    -0.77600
O885        O  0.17278414  0.66698280  0.97922624    -0.91000
Zr886      Zr  0.30562547  0.70512866  0.49407959     2.64700
O887        O  0.34146068  0.66262716  0.49240514    -0.96000
O888        O  0.35689805  0.73538256  0.02389765    -0.78100
O889        O  0.26370520  0.69179166  0.54505459    -0.81400
O890        O  0.27044461  0.70056548  0.94701707    -2.16100
O891        O  0.19405711  0.79054945  0.88746093    -0.64800
O892        O  0.23370419  0.77466408  0.83985085    -0.49400
C893        C  0.20837012  0.78836320  0.84560030     0.74000
O894        O  0.30279455  0.80395289  0.59443868    -0.57700
O895        O  0.28050991  0.77081099  0.64975058    -0.49700
C896        C  0.29739050  0.79389224  0.63914923     0.75800
O897        O  0.30515441  0.81891461  0.92267265    -0.69100
O898        O  0.29564320  0.78459823  0.86037426    -0.47800
C899        C  0.30677295  0.80967756  0.87709035     0.77100
O900        O  0.18801750  0.78499821  0.59628853    -0.64400
O901        O  0.21781412  0.75845291  0.65097264    -0.51600
C902        C  0.19630834  0.77707944  0.64076389     0.75500
Zr903      Zr  0.20037090  0.77825291  0.97637062     2.77500
O904        O  0.18193936  0.82599702  0.51243375    -0.95200
O905        O  0.15120430  0.75440980  0.96610990    -0.76000
Zr906      Zr  0.28566179  0.80099237  0.00331630     2.70100
O907        O  0.26143203  0.85094637  0.00600762    -0.77300
O908        O  0.33840835  0.81165465  0.51063970    -0.96300
Zr909      Zr  0.25456425  0.73437397  0.59787480     2.21500
Zr910      Zr  0.26436358  0.74608786  0.89825899     2.11100
O911        O  0.24831965  0.79073004  0.94251706    -2.45000
O912        O  0.24372830  0.78160052  0.55696762    -0.77100
O913        O  0.21590082  0.73461013  0.93155682    -0.69200
O914        O  0.29833033  0.74630425  0.54991192    -2.30200
O915        O  0.20915940  0.72685257  0.55283301    -2.26400
O916        O  0.30282553  0.75782909  0.95714087    -0.71000
H917        H  0.27629274  0.68326216  0.92687159     0.81000
H918        H  0.31585917  0.74840288  0.57099709     0.82100
H919        H  0.24661279  0.80835590  0.92058399     0.84300
H920        H  0.19248974  0.72225038  0.57489089     0.81900
H921        H  0.36176627  0.72924701  0.52618734     0.44900
H922        H  0.33216605  0.84158731  0.03662110     0.43900
H923        H  0.26892650  0.84920273  0.55384608     0.43600
H924        H  0.19022787  0.83986596  0.94217433     0.41500
H925        H  0.14812136  0.75360765  0.92953873     0.44700
H926        H  0.15889921  0.67531209  0.53627417     0.39400
H927        H  0.24015884  0.62942209  0.45544895     0.45600
H928        H  0.32515666  0.65147707  0.98326729     0.42000
H929        H  0.15824077  0.82495180  0.94874576     0.46900
H930        H  0.16474984  0.64962334  0.49670795     0.45600
H931        H  0.35515702  0.66693187  0.46398905     0.45800
H932        H  0.34660756  0.80880804  0.03436796     0.46100
O933        O  0.19465110  0.93441281  0.58462803    -0.72800
O934        O  0.22113634  0.96144095  0.64285724    -0.51700
C935        C  0.20072994  0.94195984  0.62989718     0.81000
O936        O  0.31968319  0.93964980  0.91319408    -0.57400
O937        O  0.28976898  0.96165157  0.85355354    -0.50400
C938        C  0.31225623  0.94496006  0.86753719     0.73000
O939        O  0.31828889  0.93803026  0.58135067    -0.71900
O940        O  0.29140197  0.96410412  0.64053969    -0.52500
C941        C  0.31246116  0.94559159  0.62673540     0.79000
O942        O  0.19403051  0.93187533  0.91637514    -0.57100
O943        O  0.21934244  0.95871652  0.85562974    -0.50200
C944        C  0.19943913  0.93900299  0.87053859     0.75600
Zr945      Zr  0.21165512  0.94689224  0.49974358     2.54700
O946        O  0.21937492  0.89154518  0.50233496    -0.77600
O947        O  0.15677202  0.94847783  0.99930651    -0.91000
Zr948      Zr  0.30049707  0.95057795  0.49748460     2.64700
O949        O  0.30121757  0.89472391  0.49416657    -0.96000
O950        O  0.35500508  0.96067884  0.00034846    -0.78100
O951        O  0.25639452  0.94815932  0.54831662    -0.81400
O952        O  0.25609911  0.94736522  0.94894971    -2.16100
O953        O  0.18846015  0.55172588  0.91693746    -0.64800
O954        O  0.21709298  0.52794352  0.85755318    -0.49400
C955        C  0.19517962  0.54539995  0.87143159     0.74000
O956        O  0.31345069  0.55737207  0.58475951    -0.57700
O957        O  0.28735216  0.53066014  0.64461205    -0.49700
C958        C  0.30795276  0.54978392  0.63044534     0.75800
O959        O  0.31522361  0.55364996  0.91648218    -0.69100
O960        O  0.28764584  0.52895892  0.85696437    -0.47800
C961        C  0.30893208  0.54712064  0.87095848     0.77100
O962        O  0.18796621  0.55205535  0.58548774    -0.64400
O963        O  0.21736791  0.52927601  0.64506060    -0.51600
C964        C  0.19528366  0.54643060  0.63107548     0.75500
Zr965      Zr  0.20710938  0.54011613  0.00047527     2.77500
O966        O  0.18893167  0.59238204  0.50260204    -0.95200
O967        O  0.15278598  0.52128257  0.49908122    -0.76000
Zr968      Zr  0.29657369  0.54243128  0.00047322     2.70100
O969        O  0.29557532  0.59818713  0.99824308    -0.77300
O970        O  0.34939056  0.54841076  0.50250886    -0.96300
Zr971      Zr  0.25468721  0.99504434  0.59460842     2.21500
Zr972      Zr  0.25374997  0.99335295  0.89949399     2.11100
O973        O  0.25191116  0.54231143  0.95137389    -2.45000
O974        O  0.24963979  0.54364606  0.55020485    -0.77100
O975        O  0.20897317  0.99140176  0.94880398    -0.69200
O976        O  0.29925291  0.99631888  0.54461299    -2.30200
O977        O  0.20958886  0.99296913  0.54617763    -2.26400
O978        O  0.29876506  0.99680838  0.94756424    -0.71000
H979        H  0.25691207  0.92935466  0.92809397     0.81000
H980        H  0.31706033  0.99713767  0.56518155     0.82100
H981        H  0.25154724  0.56015431  0.92974623     0.84300
H982        H  0.19196075  0.99272659  0.56735192     0.81900
H983        H  0.35927555  0.97619827  0.50763280     0.44900
H984        H  0.35800386  0.52846430  0.97789667     0.43900
H985        H  0.29161245  0.60640191  0.53782691     0.43600
H986        H  0.18078193  0.59928846  0.99159710     0.41500
H987        H  0.14873814  0.51667652  0.97751366     0.44700
H988        H  0.14968207  0.95435691  0.52676853     0.39400
H989        H  0.21014216  0.88464764  0.53420130     0.45600
H990        H  0.30069092  0.89015758  0.95979935     0.42000
H991        H  0.20631814  0.60268015  0.03136869     0.46900
H992        H  0.15289151  0.92050637  0.50767925     0.45600
H993        H  0.32259002  0.88955882  0.48771225     0.45800
H994        H  0.35722989  0.56363802  0.99014736     0.46100
O995        O  0.44577543  0.80531132  0.58332385    -0.72800
O996        O  0.47238999  0.77923985  0.64304950    -0.51700
C997        C  0.45347801  0.79993560  0.62884933     0.81000
O998        O  0.45175243  0.67849754  0.91618620    -0.57400
O999        O  0.47337457  0.70921225  0.85642055    -0.50400
C1000       C  0.45698155  0.68623704  0.87056111     0.73000
O1001       O  0.44996140  0.67897032  0.58501781    -0.71900
O1002       O  0.47370309  0.70831940  0.64360329    -0.52500
C1003       C  0.45611608  0.68626477  0.63030965     0.79000
O1004       O  0.44547439  0.80725449  0.91593141    -0.57100
O1005       O  0.47206681  0.78113041  0.85656450    -0.50200
C1006       C  0.45302636  0.80176752  0.87040024     0.75600
Zr1007     Zr  0.45750350  0.78626294  0.49971077     2.54700
O1008       O  0.40377852  0.77573470  0.50381859    -0.77600
O1009       O  0.45082090  0.84345205  0.99863353    -0.91000
Zr1010     Zr  0.46339761  0.69569036  0.50076161     2.64700
O1011       O  0.40887629  0.69142890  0.50439080    -0.96000
O1012       O  0.46884864  0.64171434  0.00134486    -0.78100
O1013       O  0.45982021  0.74108517  0.54962886    -0.81400
O1014       O  0.45931989  0.74272934  0.95015000    -2.16100
O1015       O  0.05607503  0.81133393  0.91123082    -0.64800
O1016       O  0.03164116  0.78216555  0.85319326    -0.49400
C1017       C  0.04942295  0.80421230  0.86601403     0.74000
O1018       O  0.06300271  0.68561334  0.58189748    -0.57700
O1019       O  0.03601698  0.71147555  0.64116135    -0.49700
C1020       C  0.05575363  0.69143179  0.62744439     0.75800
O1021       O  0.06192704  0.68525652  0.91588623    -0.69100
O1022       O  0.03384134  0.70989137  0.85631866    -0.47800
C1023       C  0.05381377  0.69019810  0.87041816     0.77100
O1024       O  0.05809657  0.81125021  0.57903104    -0.64400
O1025       O  0.03381503  0.78322741  0.63960991    -0.51600
C1026       C  0.05163158  0.80493536  0.62485122     0.75500
Zr1027     Zr  0.04462870  0.79350923  0.99586037     2.77500
O1028       O  0.09938233  0.79147049  0.99382185    -0.95200
O1029       O  0.04364846  0.84945262  0.99494476    -0.76000
Zr1030     Zr  0.04841245  0.70308473  0.99934414     2.70100
O1031       O  0.10307992  0.70814492  0.99970210    -0.77300
O1032       O  0.04756782  0.64576503  0.50353825    -0.96300
Zr1033     Zr  0.00223177  0.74620832  0.59547652     2.21500
Zr1034     Zr  0.00100435  0.74544822  0.90096311     2.11100
O1035       O  0.04684061  0.74783900  0.94799705    -2.45000
O1036       O  0.04742392  0.74735125  0.54653951    -0.77100
O1037       O  0.99962921  0.79169044  0.94825385    -0.69200
O1038       O  0.00328628  0.70026115  0.54732050    -2.30200
O1039       O  0.00075062  0.79181026  0.54537280    -2.26400
O1040       O  0.00369918  0.69990999  0.95110100    -0.71000
H1041       H  0.44200600  0.74174448  0.92848971     0.81000
H1042       H  0.00385744  0.68225910  0.56860058     0.82100
H1043       H  0.06418893  0.74840151  0.92612440     0.84300
H1044       H  0.00023594  0.80993086  0.56593773     0.81900
H1045       H  0.45550700  0.63170340  0.52224895     0.44900
H1046       H  0.03490151  0.64045912  0.97754452     0.43900
H1047       H  0.10746187  0.70124159  0.45763528     0.43600
H1048       H  0.10596214  0.81186317  0.00586426     0.41500
H1049       H  0.02226853  0.85469349  0.98874071     0.44700
H1050       H  0.46364592  0.85025960  0.52139612     0.39400
H1051       H  0.39610099  0.78979604  0.52980886     0.45600
H1052       H  0.40280101  0.70411193  0.96365122     0.42000
H1053       H  0.10467705  0.77712491  0.02131043     0.46900
H1054       H  0.42958602  0.84515589  0.50815669     0.45600
H1055       H  0.40509038  0.66939128  0.51153057     0.45800
H1056       H  0.06975587  0.64167401  0.98670135     0.46100
C1057       C  0.13592742  0.62806615  0.70377945     0.48000
H1058       H  0.13701241  0.62886134  0.66228254    -0.01000
C1059       C  0.13304446  0.62643069  0.80043344     0.48000
H1060       H  0.13165417  0.62557689  0.84191482    -0.01000
C1061       C  0.15900981  0.64911759  0.72937418    -0.14700
C1062       C  0.10536942  0.63872400  0.72461355    -0.14500
C1063       C  0.14303396  0.59628271  0.72601144    -0.14900
C1064       C  0.15709379  0.64867941  0.78048877    -0.14800
C1065       C  0.10387972  0.63773715  0.77568090    -0.14400
C1066       C  0.14191822  0.59542794  0.77718006    -0.14700
C1067       C  0.37565470  0.62651516  0.70292682     0.48000
H1068       H  0.37661613  0.62615798  0.66148792    -0.01000
C1069       C  0.37522278  0.62682607  0.79975679     0.48000
H1070       H  0.37502655  0.62633202  0.84123491    -0.01000
C1071       C  0.35502397  0.65127495  0.72529825    -0.14700
C1072       C  0.36343590  0.59661940  0.72576706    -0.14500
C1073       C  0.40656191  0.63347157  0.72597038    -0.14900
C1074       C  0.35533973  0.65200804  0.77629888    -0.14800
C1075       C  0.36318192  0.59672389  0.77688934    -0.14400
C1076       C  0.40642501  0.63354337  0.77715938    -0.14700
C1077       C  0.13322177  0.86387800  0.69755827     0.48000
H1078       H  0.13285166  0.86632202  0.65616877    -0.01000
C1079       C  0.13332202  0.85912668  0.79395223     0.48000
H1080       H  0.13339929  0.85721823  0.83541798    -0.01000
C1081       C  0.15291895  0.83728873  0.71659974    -0.14700
C1082       C  0.14629535  0.89222206  0.72353965    -0.14500
C1083       C  0.10192239  0.85676840  0.71990166    -0.14900
C1084       C  0.15250999  0.83440499  0.76813587    -0.14800
C1085       C  0.14637247  0.88979317  0.77444434    -0.15300
C1086       C  0.10196444  0.85467721  0.77101055    -0.14700
C1087       C  0.37359589  0.86371461  0.79300528     0.48000
H1088       H  0.37325510  0.86287736  0.83444642    -0.01000
C1089       C  0.37681423  0.86637268  0.69663923     0.48000
H1090       H  0.37860279  0.86803411  0.65525133    -0.01000
C1091       C  0.35172219  0.84130594  0.76674050    -0.14700
C1092       C  0.36491015  0.89524215  0.77175328    -0.14500
C1093       C  0.40466916  0.85492333  0.77250027    -0.14900
C1094       C  0.35380637  0.84249792  0.71510098    -0.14800
C1095       C  0.36632499  0.89660197  0.72075293    -0.14400
C1096       C  0.40632007  0.85606892  0.72150162    -0.14700
C1097       C  0.08023021  0.84013381  0.68970800    -0.10700
C1098       C  0.06576192  0.82396892  0.66200838    -0.12300
C1099       C  0.07917300  0.83793896  0.79948783    -0.10700
C1100       C  0.06381211  0.82235733  0.82731534    -0.12300
C1101       C  0.06838200  0.67185416  0.83274943    -0.10700
C1102       C  0.08267555  0.65574952  0.80467150    -0.12300
C1103       C  0.08520289  0.65721811  0.69380522    -0.10700
C1104       C  0.07089034  0.67344295  0.66550008    -0.12300
C1105       C  0.42795435  0.65130940  0.69667379    -0.10700
C1106       C  0.44209119  0.66777312  0.66861520    -0.12300
C1107       C  0.42801843  0.65119244  0.80603057    -0.10700
C1108       C  0.44273274  0.66754483  0.83307939    -0.12300
C1109       C  0.42492994  0.83666840  0.80346569    -0.10700
C1110       C  0.43881132  0.82046174  0.83232824    -0.12300
C1111       C  0.44013157  0.81937324  0.66615908    -0.10700
C1112       C  0.42683366  0.83682317  0.69335252    -0.12300
C1113       C  0.34424175  0.57619371  0.80631687    -0.10700
C1114       C  0.32754302  0.56168560  0.83342863    -0.12300
C1115       C  0.32699216  0.56357796  0.66802044    -0.10700
C1116       C  0.34401594  0.57686754  0.69597431    -0.12300
C1117       C  0.17692898  0.56063065  0.66886389    -0.10700
C1118       C  0.16076579  0.57490642  0.69673158    -0.12300
C1119       C  0.17639789  0.55943678  0.83371683    -0.10700
C1120       C  0.15985264  0.57389439  0.80640428    -0.12300
C1121       C  0.33147126  0.93205470  0.66443405    -0.10700
C1122       C  0.34820432  0.91794855  0.69177810    -0.12300
C1123       C  0.34681662  0.91613357  0.80176487    -0.10700
C1124       C  0.33070715  0.93056675  0.82972880    -0.12300
C1125       C  0.18125786  0.92357410  0.83364739    -0.10700
C1126       C  0.16494409  0.90917197  0.80608931    -0.12300
C1127       C  0.18257496  0.92750191  0.66834750    -0.10700
C1128       C  0.16578506  0.91322250  0.69576149    -0.12300
C1129       C  0.19538852  0.80419310  0.80171978    -0.13900
C1130       C  0.16585113  0.81027137  0.80004831    -0.29100
H1131       H  0.21040561  0.81307931  0.77293009     0.15100
H1132       H  0.15147885  0.80180823  0.83009341     0.15700
C1133       C  0.18036747  0.79099546  0.68323383    -0.13900
C1134       C  0.16969578  0.81959647  0.67863935    -0.29100
H1135       H  0.17808700  0.77798355  0.71761623     0.15100
H1136       H  0.17258038  0.83129070  0.64290787     0.15700
C1137       C  0.32245758  0.82988415  0.84180730    -0.13900
C1138       C  0.33243659  0.82059545  0.79687721    -0.29100
H1139       H  0.32634267  0.85327993  0.85409715     0.15100
H1140       H  0.32812517  0.79739606  0.78401205     0.15700
C1141       C  0.31140173  0.80986965  0.68176164    -0.13900
C1142       C  0.33821614  0.82371933  0.67673382    -0.29100
H1143       H  0.29928963  0.81018441  0.71688962     0.15100
H1144       H  0.34915011  0.82294813  0.64037594     0.15700
C1145       C  0.33774028  0.67419624  0.80573914    -0.13900
C1146       C  0.34730398  0.68392778  0.85023011    -0.29100
H1147       H  0.31628221  0.68209986  0.79103673     0.15100
H1148       H  0.36878152  0.67618890  0.86504523     0.15700
C1149       C  0.33644680  0.67173493  0.69442887    -0.13900
C1150       C  0.32604755  0.66197898  0.65071185    -0.29100
H1151       H  0.33124254  0.69473603  0.70748009     0.15100
H1152       H  0.33085546  0.63897164  0.63747053     0.15700
C1153       C  0.20341639  0.67639583  0.80963194    -0.13900
C1154       C  0.17489958  0.66670294  0.81623237    -0.29100
H1155       H  0.21560118  0.67319035  0.77501025     0.15100
H1156       H  0.16404308  0.67020820  0.85218785     0.15700
C1157       C  0.19588526  0.65290024  0.66299280    -0.13900
C1158       C  0.18109992  0.66667050  0.70017975    -0.29100
H1159       H  0.19192931  0.62876994  0.65505911     0.15100
H1160       H  0.18423920  0.69097604  0.70783421     0.15700
O1161       O  0.71114109  0.17283564  0.08638502    -0.72800
O1162       O  0.72337158  0.21168081  0.13954911    -0.51700
C1163       C  0.71276203  0.18486737  0.12963956     0.81000
O1164       O  0.82986256  0.19497934  0.43458897    -0.57400
O1165       O  0.79787614  0.20762603  0.37113583    -0.50400
C1166       C  0.82221555  0.19569217  0.38820198     0.73000
O1167       O  0.81546738  0.19842929  0.09579305    -0.71900
O1168       O  0.78095368  0.22241707  0.14543371    -0.52500
C1169       C  0.80357878  0.20469462  0.13868945     0.79000
O1170       O  0.70703562  0.17013310  0.44110029    -0.57100
O1171       O  0.72738683  0.19767981  0.37628426    -0.50200
C1172       C  0.71042914  0.17630580  0.39460653     0.75600
Zr1173     Zr  0.72079866  0.18677427  0.00130176     2.54700
O1174       O  0.74277242  0.13623754  0.01337866    -0.77600
O1175       O  0.66971192  0.17885761  0.52445665    -0.91000
Zr1176     Zr  0.80686607  0.20900818  0.00644562     2.64700
O1177       O  0.82799357  0.15759576  0.01481015    -0.96000
O1178       O  0.86121295  0.22883102  0.51953506    -0.78100
O1179       O  0.76178294  0.20149539  0.05133260    -0.81400
O1180       O  0.76693420  0.19641433  0.46834887    -2.16100
O1181       O  0.69507473  0.28979813  0.40123613    -0.64800
O1182       O  0.72773409  0.26358479  0.35130480    -0.49400
C1183       C  0.70565449  0.28200316  0.35802705     0.74000
O1184       O  0.79631243  0.32059400  0.06230119    -0.57700
O1185       O  0.77847765  0.29024757  0.12582980    -0.49700
C1186       C  0.79366197  0.31332001  0.10855518     0.75800
O1187       O  0.82050477  0.29401826  0.41712323    -0.69100
O1188       O  0.79142346  0.26988332  0.35938121    -0.47800
C1189       C  0.81409303  0.28634254  0.37239464     0.77100
O1190       O  0.67709963  0.29009786  0.06145200    -0.64400
O1191       O  0.70856395  0.27713657  0.12554809    -0.51600
C1192       C  0.68443870  0.28929189  0.10808375     0.75500
Zr1193     Zr  0.70521650  0.28171879  0.49134311     2.77500
O1194       O  0.68027648  0.32696114  0.97524084    -0.95200
O1195       O  0.65501198  0.25985913  0.49962456    -0.76000
Zr1196     Zr  0.79241669  0.29926858  0.49373968     2.70100
O1197       O  0.77180315  0.34743591  0.46239233    -0.77300
O1198       O  0.83642850  0.31588326  0.98984254    -0.96300
Zr1199     Zr  0.74916933  0.24930571  0.08755559     2.21500
Zr1200     Zr  0.75926826  0.23758564  0.41060296     2.11100
O1201       O  0.75012218  0.28739352  0.44419563    -2.45000
O1202       O  0.73989326  0.29045476  0.03051136    -0.77100
O1203       O  0.71371773  0.23278966  0.45687007    -0.69200
O1204       O  0.79517831  0.25658068  0.04294392    -2.30200
O1205       O  0.70690100  0.23388160  0.03893905    -2.26400
O1206       O  0.80238499  0.25084803  0.45786181    -0.71000
H1207       H  0.77033194  0.17716096  0.45146729     0.81000
H1208       H  0.81168561  0.26197630  0.06458683     0.82100
H1209       H  0.74843920  0.30269863  0.41810153     0.84300
H1210       H  0.68924277  0.23076055  0.05952914     0.81900
H1211       H  0.86028968  0.23984315  0.97752268     0.44900
H1212       H  0.85491538  0.31521135  0.48637190     0.43900
H1213       H  0.77594183  0.35247488  0.93053731     0.43600
H1214       H  0.69106910  0.34133719  0.45191595     0.41500
H1215       H  0.64781518  0.25809692  0.46479905     0.44700
H1216       H  0.65930764  0.18089007  0.03110800     0.39400
H1217       H  0.75690616  0.13869389  0.04162627     0.45600
H1218       H  0.84655001  0.15856515  0.53588897     0.42000
H1219       H  0.66012027  0.32424074  0.45827640     0.46900
H1220       H  0.67041235  0.14749366  0.02022091     0.45600
H1221       H  0.81508757  0.14714492  0.03991220     0.45800
H1222       H  0.83713029  0.34397702  0.46696110     0.46100
O1223       O  0.69692761  0.43086064  0.08426074    -0.72800
O1224       O  0.72210328  0.45862206  0.14314817    -0.51700
C1225       C  0.70276386  0.43820935  0.12970935     0.81000
O1226       O  0.81782404  0.43547808  0.41820175    -0.57400
O1227       O  0.78950466  0.45911683  0.35795835    -0.50400
C1228       C  0.81085960  0.44104611  0.37234652     0.73000
O1229       O  0.81958969  0.43849768  0.08299826    -0.71900
O1230       O  0.78978364  0.46125838  0.14192356    -0.52500
C1231       C  0.81191053  0.44409306  0.12837006     0.79000
O1232       O  0.69379497  0.43102738  0.41967976    -0.57100
O1233       O  0.71990852  0.45708656  0.35896015    -0.50200
C1234       C  0.69980404  0.43760930  0.37378181     0.75600
Zr1235     Zr  0.71269571  0.44546545  0.99963395     2.54700
O1236       O  0.72123591  0.39031099  0.99680643    -0.77600
O1237       O  0.65643848  0.44513748  0.50071441    -0.91000
Zr1238     Zr  0.80127895  0.45009251  0.99919741     2.64700
O1239       O  0.79919720  0.39435273  0.00375764    -0.96000
O1240       O  0.85512409  0.45611720  0.49995589    -0.78100
O1241       O  0.75695921  0.44725321  0.04891416    -0.81400
O1242       O  0.75593543  0.44651834  0.45287478    -2.16100
O1243       O  0.68834780  0.05125008  0.41220405    -0.64800
O1244       O  0.71725855  0.02753433  0.35311886    -0.49400
C1245       C  0.69549090  0.04516088  0.36678021     0.74000
O1246       O  0.81223936  0.05938159  0.07850850    -0.57700
O1247       O  0.78731279  0.03216800  0.13930686    -0.49700
C1248       C  0.80698801  0.05208699  0.12443244     0.75800
O1249       O  0.81289174  0.05678517  0.41109671    -0.69100
O1250       O  0.78673898  0.02988149  0.35229597    -0.47800
C1251       C  0.80701501  0.04934804  0.36574436     0.77100
O1252       O  0.69160755  0.05757548  0.07874757    -0.64400
O1253       O  0.71829751  0.03218274  0.13924063    -0.51600
C1254       C  0.69807233  0.05151396  0.12464485     0.75500
Zr1255     Zr  0.70664770  0.04000542  0.49612040     2.77500
O1256       O  0.70042891  0.09524448  0.98595974    -0.95200
O1257       O  0.65238745  0.03260188  0.00137979    -0.76000
Zr1258     Zr  0.79500263  0.04513675  0.49554181     2.70100
O1259       O  0.78482152  0.10009882  0.49260972    -0.77300
O1260       O  0.85046358  0.04856484  0.00047775    -0.96300
Zr1261     Zr  0.75456353  0.49364535  0.09604186     2.21500
Zr1262     Zr  0.75391288  0.49212084  0.40241455     2.11100
O1263       O  0.75081192  0.04275125  0.44611994    -2.45000
O1264       O  0.75124524  0.04373420  0.04460205    -0.77100
O1265       O  0.70907714  0.49081050  0.45154509    -0.69200
O1266       O  0.79961966  0.49554803  0.04713358    -2.30200
O1267       O  0.70971777  0.49102044  0.04724755    -2.26400
O1268       O  0.79870548  0.49560934  0.45119418    -0.71000
H1269       H  0.75667211  0.42828656  0.43247124     0.81000
H1270       H  0.81728219  0.49642624  0.06799658     0.82100
H1271       H  0.74998623  0.06026795  0.42382059     0.84300
H1272       H  0.69202127  0.49017267  0.06823013     0.81900
H1273       H  0.86207411  0.47073738  0.00654392     0.44900
H1274       H  0.85757613  0.03862777  0.47263339     0.43900
H1275       H  0.78556357  0.10231441  0.94876938     0.43600
H1276       H  0.72035796  0.10071508  0.46156599     0.41500
H1277       H  0.64653369  0.01996077  0.51567335     0.44700
H1278       H  0.65101873  0.45253405  0.02849739     0.39400
H1279       H  0.72270578  0.38376369  0.03220134     0.45600
H1280       H  0.82282624  0.39074811  0.52348339     0.42000
H1281       H  0.68676455  0.10152037  0.47935936     0.46900
H1282       H  0.65487467  0.41782630  0.01428087     0.45600
H1283       H  0.78981633  0.38978663  0.03659298     0.45800
H1284       H  0.85259889  0.07369273  0.48336894     0.46100
O1285       O  0.94359290  0.30390103  0.08038000    -0.72800
O1286       O  0.97033134  0.27836101  0.14056644    -0.51700
C1287       C  0.95052372  0.29813749  0.12607117     0.81000
O1288       O  0.95167827  0.17790020  0.41521287    -0.57400
O1289       O  0.97424512  0.20760129  0.35512414    -0.50400
C1290       C  0.95710218  0.18522230  0.36944464     0.73000
O1291       O  0.95165814  0.17841676  0.08323857    -0.71900
O1292       O  0.97477425  0.20800626  0.14219221    -0.52500
C1293       C  0.95766561  0.18563885  0.12867049     0.79000
O1294       O  0.94304186  0.30296099  0.41272104    -0.57100
O1295       O  0.97005638  0.27710695  0.35355706    -0.50200
C1296       C  0.95006205  0.29683419  0.36716641     0.75600
Zr1297     Zr  0.95779484  0.28661922  0.99707770     2.54700
O1298       O  0.90356768  0.27912710  0.99577123    -0.77600
O1299       O  0.95087037  0.34250754  0.49498586    -0.91000
Zr1300     Zr  0.96383091  0.19608651  0.99870673     2.64700
O1301       O  0.90905418  0.19458378  0.99926671    -0.96000
O1302       O  0.97064252  0.14071153  0.49873761    -0.78100
O1303       O  0.95987255  0.24145498  0.04739264    -0.81400
O1304       O  0.95957735  0.24136809  0.44908367    -2.16100
O1305       O  0.55485678  0.31317705  0.41231315    -0.64800
O1306       O  0.53249097  0.28257864  0.35396570    -0.49400
C1307       C  0.54922389  0.30537998  0.36701345     0.74000
O1308       O  0.56426576  0.18672147  0.08498295    -0.57700
O1309       O  0.53757686  0.21330102  0.14369446    -0.49700
C1310       C  0.55726009  0.19317755  0.13034904     0.75800
O1311       O  0.56282652  0.18555636  0.41725551    -0.69100
O1312       O  0.53602628  0.21097479  0.35701752    -0.47800
C1313       C  0.55547860  0.19087240  0.37162184     0.77100
O1314       O  0.55903963  0.31164829  0.08086695    -0.64400
O1315       O  0.53532765  0.28301867  0.14122381    -0.51600
C1316       C  0.55311808  0.30473891  0.12659026     0.75500
Zr1317     Zr  0.54392722  0.29524138  0.49720521     2.77500
O1318       O  0.59854806  0.30023631  0.49451848    -0.95200
O1319       O  0.53659240  0.35071465  0.49753034    -0.76000
Zr1320     Zr  0.55056332  0.20465587  0.50023556     2.70100
O1321       O  0.60470337  0.21360432  0.49903406    -0.77300
O1322       O  0.55425599  0.14722679  0.00608212    -0.96300
Zr1323     Zr  0.50330098  0.24662884  0.09692033     2.21500
Zr1324     Zr  0.50226690  0.24565937  0.40164316     2.11100
O1325       O  0.54782562  0.24954205  0.44930112    -2.45000
O1326       O  0.54869386  0.24886790  0.04848717    -0.77100
O1327       O  0.49936352  0.29162362  0.44928386    -0.69200
O1328       O  0.50590172  0.20049944  0.04906146    -2.30200
O1329       O  0.50085962  0.29222728  0.04704436    -2.26400
O1330       O  0.50616431  0.20023502  0.45152060    -0.71000
H1331       H  0.94211822  0.23986946  0.42779532     0.81000
H1332       H  0.50674232  0.18258374  0.07047246     0.82100
H1333       H  0.56523464  0.25062083  0.42756246     0.84300
H1334       H  0.50005097  0.31033552  0.06760068     0.81900
H1335       H  0.98768529  0.13586904  0.01312985     0.44900
H1336       H  0.54285564  0.14072450  0.47986482     0.43900
H1337       H  0.60989601  0.21457973  0.03648841     0.43600
H1338       H  0.60415022  0.29614249  0.45938434     0.41500
H1339       H  0.51677412  0.35384800  0.48138752     0.44700
H1340       H  0.96551471  0.35056729  0.01686999     0.39400
H1341       H  0.89735444  0.27932575  0.03130560     0.45600
H1342       H  0.90351315  0.18816069  0.46432927     0.42000
H1343       H  0.60229315  0.32252205  0.49873862     0.46900
H1344       H  0.93101040  0.34595443  0.00659759     0.45600
H1345       H  0.90403709  0.17305747  0.00832001     0.45800
H1346       H  0.57730850  0.14522830  0.49073459     0.46100
C1347       C  0.64141500  0.13636035  0.20473630     0.48000
H1348       H  0.64265436  0.13910903  0.16345337    -0.01000
C1349       C  0.63855619  0.13046274  0.30124434     0.48000
H1350       H  0.63688789  0.12780825  0.34243719    -0.01000
C1351       C  0.66328037  0.15741417  0.23306575    -0.14700
C1352       C  0.61048162  0.14455312  0.22653549    -0.14500
C1353       C  0.64953146  0.10391214  0.22326725    -0.14900
C1354       C  0.66218873  0.15408285  0.28362445    -0.14800
C1355       C  0.60899315  0.14179877  0.27741248    -0.14400
C1356       C  0.64789081  0.10078498  0.27418627    -0.14700
C1357       C  0.87456217  0.13045593  0.19872610     0.48000
H1358       H  0.87544662  0.13074713  0.15718422    -0.01000
C1359       C  0.87267036  0.12940444  0.29536941     0.48000
H1360       H  0.87222627  0.12746962  0.33664335    -0.01000
C1361       C  0.85540045  0.15639981  0.22066004    -0.14700
C1362       C  0.86046537  0.10094906  0.22027991    -0.14500
C1363       C  0.90546315  0.13526545  0.22317871    -0.14900
C1364       C  0.85401531  0.15596108  0.27230290    -0.14800
C1365       C  0.85973792  0.10031425  0.27121962    -0.14400
C1366       C  0.90455876  0.13498338  0.27437852    -0.14700
C1367       C  0.63750238  0.35784573  0.20129239     0.48000
H1368       H  0.63821385  0.35969976  0.16000861    -0.01000
C1369       C  0.63503310  0.35697325  0.29791147     0.48000
H1370       H  0.63395048  0.35680804  0.33943657    -0.01000
C1371       C  0.65475598  0.33041394  0.22449850    -0.14700
C1372       C  0.65146705  0.38635612  0.22546191    -0.14500
C1373       C  0.60537669  0.35385045  0.22197038    -0.14900
C1374       C  0.65340132  0.33025649  0.27625447    -0.14800
C1375       C  0.65016709  0.38596071  0.27636757    -0.15300
C1376       C  0.60407230  0.35342898  0.27312346    -0.14700
C1377       C  0.86641117  0.35568903  0.29397583     0.48000
H1378       H  0.86571273  0.35414066  0.33542309    -0.01000
C1379       C  0.86761819  0.35954364  0.19712493     0.48000
H1380       H  0.86848511  0.36117628  0.15570941    -0.01000
C1381       C  0.84359038  0.33455180  0.26781491    -0.14700
C1382       C  0.85874427  0.38797800  0.27397116    -0.14500
C1383       C  0.89674174  0.34616183  0.27134537    -0.14900
C1384       C  0.84351812  0.33717356  0.21712552    -0.14800
C1385       C  0.85961699  0.38997542  0.22284266    -0.14400
C1386       C  0.89734470  0.34784935  0.22028394    -0.14700
C1387       C  0.58318616  0.33829623  0.19152824    -0.10700
C1388       C  0.56802017  0.32294837  0.16377932    -0.12300
C1389       C  0.58006654  0.33822674  0.30096454    -0.10700
C1390       C  0.56394482  0.32333738  0.32852835    -0.12300
C1391       C  0.57086595  0.17283878  0.33453057    -0.10700
C1392       C  0.58657478  0.15765312  0.30720444    -0.12300
C1393       C  0.58867074  0.16138696  0.19674603    -0.10700
C1394       C  0.57305595  0.17626856  0.16863281    -0.12300
C1395       C  0.92846162  0.15149026  0.19482890    -0.10700
C1396       C  0.94354377  0.16713069  0.16688542    -0.12300
C1397       C  0.92657887  0.15144461  0.30455058    -0.10700
C1398       C  0.94199523  0.16696802  0.33201770    -0.12300
C1399       C  0.91842241  0.32886674  0.30098435    -0.10700
C1400       C  0.93396684  0.31373005  0.32899477    -0.12300
C1401       C  0.93464591  0.31568002  0.16322089    -0.10700
C1402       C  0.91908558  0.33113852  0.19037325    -0.12300
C1403       C  0.84104649  0.07922402  0.30012173    -0.10700
C1404       C  0.82491270  0.06433918  0.32766657    -0.12300
C1405       C  0.82528210  0.06720943  0.16155519    -0.10700
C1406       C  0.84172531  0.08123660  0.18943141    -0.12300
C1407       C  0.68096515  0.06776624  0.16224456    -0.10700
C1408       C  0.66607546  0.08289268  0.19111097    -0.12300
C1409       C  0.67795218  0.06030782  0.32881392    -0.10700
C1410       C  0.66329192  0.07667698  0.30156776    -0.12300
C1411       C  0.82946564  0.42931760  0.16654752    -0.10700
C1412       C  0.84417749  0.41360426  0.19462143    -0.12300
C1413       C  0.84288860  0.40987201  0.30560175    -0.10700
C1414       C  0.82829195  0.42526216  0.33455037    -0.12300
C1415       C  0.68246105  0.42163009  0.33643351    -0.10700
C1416       C  0.66739334  0.40660212  0.30787314    -0.12300
C1417       C  0.68574279  0.42233788  0.16802411    -0.10700
C1418       C  0.67012712  0.40735831  0.19629225    -0.12300
C1419       C  0.69316200  0.29689199  0.31296080    -0.13900
C1420       C  0.66470974  0.30684599  0.31192842    -0.29100
H1421       H  0.70860115  0.30238035  0.28274869     0.15100
H1422       H  0.65041914  0.30216024  0.34414869     0.15700
C1423       C  0.66403644  0.30457316  0.14359396    -0.13900
C1424       C  0.67054540  0.30756505  0.19260991    -0.29100
H1425       H  0.64408942  0.31518036  0.12784487     0.15100
H1426       H  0.68930707  0.29486964  0.20807390     0.15700
C1427       C  0.83434153  0.29850664  0.33476529    -0.13900
C1428       C  0.82357114  0.31372265  0.29551469    -0.29100
H1429       H  0.85804731  0.30041822  0.34448583     0.15100
H1430       H  0.79983063  0.31251815  0.28574638     0.15700
C1431       C  0.81144156  0.33196037  0.14305495    -0.13900
C1432       C  0.82229250  0.31996940  0.18542129    -0.29100
H1433       H  0.81843992  0.35475710  0.13084180     0.15100
H1434       H  0.81528938  0.29713084  0.19746838     0.15700
C1435       C  0.83667789  0.17764845  0.30393097    -0.13900
C1436       C  0.84289878  0.18089565  0.35283127    -0.29100
H1437       H  0.81722975  0.18917606  0.28834486     0.15100
H1438       H  0.86336297  0.17138035  0.36857434     0.15700
C1439       C  0.84418492  0.18020485  0.18577174    -0.13900
C1440       C  0.81541009  0.18893378  0.18336156    -0.29100
H1441       H  0.85918128  0.18642567  0.15514136     0.15100
H1442       H  0.79944676  0.18189772  0.21197124     0.15700
C1443       C  0.69199674  0.15830040  0.36044683    -0.13900
C1444       C  0.68315772  0.17029671  0.31684502    -0.29100
H1445       H  0.68362619  0.13611359  0.37315906     0.15100
H1446       H  0.69182959  0.19252529  0.30480263     0.15700
C1447       C  0.70014276  0.16579542  0.16903576    -0.13900
C1448       C  0.68467578  0.17756370  0.20681425    -0.29100
H1449       H  0.69865617  0.14125142  0.16175005     0.15100
H1450       H  0.68530016  0.20198426  0.21503871     0.15700
O1451       O  0.71087022  0.18456574  0.60475874    -0.72800
O1452       O  0.73202904  0.21974115  0.65663566    -0.51700
C1453       C  0.71621668  0.19568879  0.64812978     0.81000
O1454       O  0.82745880  0.19199684  0.92726481    -0.57400
O1455       O  0.79543511  0.20309375  0.86295651    -0.50400
C1456       C  0.81968591  0.19146208  0.88109413     0.73000
O1457       O  0.81972463  0.20165776  0.60331244    -0.71900
O1458       O  0.79172652  0.23139358  0.65561394    -0.52500
C1459       C  0.81179721  0.21087137  0.64697655     0.79000
O1460       O  0.70754218  0.16407365  0.92235273    -0.57100
O1461       O  0.72628034  0.19412175  0.85932027    -0.50200
C1462       C  0.71067992  0.17139116  0.87619212     0.75600
Zr1463     Zr  0.72252919  0.19380741  0.51776630     2.54700
O1464       O  0.73972964  0.14179519  0.53461348    -0.77600
O1465       O  0.66901296  0.16825106  0.00503924    -0.91000
Zr1466     Zr  0.80969175  0.21086034  0.51554427     2.64700
O1467       O  0.82556004  0.15743891  0.52358638    -0.96000
O1468       O  0.85667610  0.23175225  0.01167811    -0.78100
O1469       O  0.76552209  0.20623579  0.56440217    -0.81400
O1470       O  0.76584662  0.19271121  0.95577251    -2.16100
O1471       O  0.69000327  0.28539663  0.89227160    -0.64800
O1472       O  0.72390024  0.26162699  0.84128936    -0.49400
C1473       C  0.70147435  0.27961718  0.84898255     0.74000
O1474       O  0.80448459  0.32306370  0.57280725    -0.57700
O1475       O  0.78228588  0.29729539  0.63754693    -0.49700
C1476       C  0.79899430  0.31874241  0.61937489     0.75800
O1477       O  0.80399255  0.30208719  0.89853321    -0.69100
O1478       O  0.78685645  0.26493994  0.84599458    -0.47800
C1479       C  0.80221278  0.28906121  0.85555778     0.77100
O1480       O  0.69463064  0.30992343  0.56752983    -0.64400
O1481       O  0.71590067  0.28547675  0.63446713    -0.51600
C1482       C  0.69832006  0.30550479  0.61464400     0.75500
Zr1483     Zr  0.69850559  0.27426704  0.98088286     2.77500
O1484       O  0.67861850  0.32996432  0.47663440    -0.95200
O1485       O  0.64781886  0.25433154  0.96861616    -0.76000
Zr1486     Zr  0.78523872  0.29616698  0.98382077     2.70100
O1487       O  0.76575366  0.34677889  0.96222888    -0.77300
O1488       O  0.83863668  0.32961327  0.49569188    -0.96300
Zr1489     Zr  0.75597226  0.25520136  0.59929093     2.21500
Zr1490     Zr  0.75583396  0.23371225  0.89891828     2.11100
O1491       O  0.74380577  0.28211468  0.93513875    -2.45000
O1492       O  0.74758760  0.29588760  0.54074169    -0.77100
O1493       O  0.70999726  0.22649500  0.94330667    -0.69200
O1494       O  0.80164771  0.25956198  0.55278192    -2.30200
O1495       O  0.71192128  0.24243980  0.55268791    -2.26400
O1496       O  0.79822480  0.24868385  0.94732107    -0.71000
H1497       H  0.77040969  0.17374423  0.93876892     0.81000
H1498       H  0.81853192  0.26453820  0.57394210     0.82100
H1499       H  0.74194352  0.29827311  0.91048171     0.84300
H1500       H  0.69442558  0.24121969  0.57414802     0.81900
H1501       H  0.86495485  0.23671430  0.48529777     0.44900
H1502       H  0.84859332  0.30167286  0.96931330     0.43900
H1503       H  0.75152602  0.34848363  0.47768185     0.43600
H1504       H  0.69564256  0.33779733  0.95479176     0.41500
H1505       H  0.64133646  0.26253715  0.93577436     0.44700
H1506       H  0.66055629  0.19423710  0.54696277     0.39400
H1507       H  0.75738209  0.14428151  0.55675023     0.45600
H1508       H  0.84750584  0.16064208  0.03197290     0.42000
H1509       H  0.66229669  0.32593076  0.95348615     0.46900
H1510       H  0.66976735  0.15950516  0.54417592     0.45600
H1511       H  0.81389839  0.14910532  0.55222418     0.45800
H1512       H  0.83622517  0.33537583  0.97055064     0.46100
O1513       O  0.69435763  0.43372385  0.58678236    -0.72800
O1514       O  0.72095233  0.46058555  0.64510957    -0.51700
C1515       C  0.70056868  0.44119248  0.63195616     0.81000
O1516       O  0.82070722  0.43888763  0.91598179    -0.57400
O1517       O  0.79225269  0.46268225  0.85605969    -0.50400
C1518       C  0.81435177  0.44556659  0.87033814     0.73000
O1519       O  0.81865329  0.43908169  0.58543354    -0.71900
O1520       O  0.79034620  0.46367817  0.64433042    -0.52500
C1521       C  0.81206808  0.44587908  0.63081276     0.79000
O1522       O  0.69337452  0.43407770  0.91668154    -0.57100
O1523       O  0.72069604  0.45893141  0.85612244    -0.50200
C1524       C  0.69955127  0.44061992  0.87089276     0.75600
Zr1525     Zr  0.71135116  0.44615052  0.50233601     2.54700
O1526       O  0.71559196  0.39051853  0.50758894    -0.77600
O1527       O  0.65815552  0.43896909  0.00139213    -0.91000
Zr1528     Zr  0.80053535  0.45063533  0.50140653     2.64700
O1529       O  0.80285951  0.39498118  0.50851973    -0.96000
O1530       O  0.85613414  0.44957001  0.99742838    -0.78100
O1531       O  0.75604899  0.44800823  0.55108853    -0.81400
O1532       O  0.75705975  0.44664954  0.94959911    -2.16100
O1533       O  0.68862039  0.05038350  0.91099390    -0.64800
O1534       O  0.71772741  0.02659079  0.85231881    -0.49400
C1535       C  0.69571396  0.04401677  0.86563721     0.74000
O1536       O  0.81396108  0.05797968  0.57859908    -0.57700
O1537       O  0.78874126  0.03041794  0.63868017    -0.49700
C1538       C  0.80904682  0.04977968  0.62422551     0.75800
O1539       O  0.81544312  0.05318165  0.91090078    -0.69100
O1540       O  0.78812982  0.02737407  0.85235467    -0.47800
C1541       C  0.80941758  0.04574039  0.86562186     0.77100
O1542       O  0.68921343  0.05353283  0.57971299    -0.64400
O1543       O  0.71750458  0.02951364  0.63966268    -0.51600
C1544       C  0.69586498  0.04723903  0.62539730     0.75500
Zr1545     Zr  0.70666616  0.04012679  0.99560847     2.77500
O1546       O  0.70728235  0.09584468  0.49057062    -0.95200
O1547       O  0.65178917  0.03924146  0.49779478    -0.76000
Zr1548     Zr  0.79584701  0.04387485  0.99504588     2.70100
O1549       O  0.79100351  0.09919763  0.98429014    -0.77300
O1550       O  0.84934548  0.05292185  0.49782168    -0.96300
Zr1551     Zr  0.75397383  0.49472522  0.59748117     2.21500
Zr1552     Zr  0.75482057  0.49307337  0.90105346     2.11100
O1553       O  0.75126891  0.04227068  0.94620003    -2.45000
O1554       O  0.75081000  0.04382646  0.54592359    -0.77100
O1555       O  0.71006525  0.49082804  0.95029674    -0.69200
O1556       O  0.79870323  0.49665961  0.54778869    -2.30200
O1557       O  0.70900855  0.49206674  0.54892942    -2.26400
O1558       O  0.79957543  0.49545081  0.94994244    -0.71000
H1559       H  0.75792812  0.42880457  0.92837424     0.81000
H1560       H  0.81651320  0.49775606  0.56833743     0.82100
H1561       H  0.75062530  0.05970351  0.92373116     0.84300
H1562       H  0.69134815  0.49161012  0.57001039     0.81900
H1563       H  0.85862054  0.47736594  0.48774606     0.44900
H1564       H  0.85845341  0.03573810  0.97305838     0.43900
H1565       H  0.78578545  0.10576958  0.45676115     0.43600
H1566       H  0.71052652  0.10031067  0.95392055     0.41500
H1567       H  0.64807076  0.01563799  0.97798511     0.44700
H1568       H  0.65007350  0.46039965  0.52588653     0.39400
H1569       H  0.72214035  0.38619194  0.54225995     0.45600
H1570       H  0.82047530  0.38798205  0.00770859     0.42000
H1571       H  0.67868577  0.09787780  0.97892215     0.46900
H1572       H  0.65084009  0.42497937  0.51546706     0.45600
H1573       H  0.78826675  0.38978235  0.53533343     0.45800
H1574       H  0.85481468  0.06999196  0.98996738     0.46100
O1575       O  0.94237419  0.30289201  0.58189399    -0.72800
O1576       O  0.96990947  0.27816880  0.64198196    -0.51700
C1577       C  0.94968810  0.29748459  0.62761150     0.81000
O1578       O  0.95142502  0.17762530  0.91514871    -0.57400
O1579       O  0.97357201  0.20766468  0.85501737    -0.50400
C1580       C  0.95656944  0.18518744  0.86936281     0.73000
O1581       O  0.95139170  0.17872555  0.58298769    -0.71900
O1582       O  0.97426453  0.20837611  0.64211605    -0.52500
C1583       C  0.95722235  0.18599521  0.62843462     0.79000
O1584       O  0.94588769  0.30471160  0.91305309    -0.57100
O1585       O  0.97205502  0.27814449  0.85375144    -0.50200
C1586       C  0.95306004  0.29879034  0.86758537     0.75600
Zr1587     Zr  0.95668777  0.28683351  0.49752316     2.54700
O1588       O  0.90238422  0.28046856  0.49696802    -0.77600
O1589       O  0.95121919  0.34213671  0.99215245    -0.91000
Zr1590     Zr  0.96414490  0.19625352  0.49875806     2.64700
O1591       O  0.90946410  0.19225541  0.49926070    -0.96000
O1592       O  0.96709586  0.14022266  0.00082107    -0.78100
O1593       O  0.95956279  0.24155793  0.54750213    -0.81400
O1594       O  0.95989845  0.24116076  0.94862367    -2.16100
O1595       O  0.55691273  0.31190950  0.91381681    -0.64800
O1596       O  0.53385551  0.28200503  0.85524903    -0.49400
C1597       C  0.55078157  0.30455929  0.86855273     0.74000
O1598       O  0.56426005  0.18788842  0.58454808    -0.57700
O1599       O  0.53704483  0.21385165  0.64333899    -0.49700
C1600       C  0.55667882  0.19371124  0.62994996     0.75800
O1601       O  0.56378686  0.18484526  0.91730802    -0.69100
O1602       O  0.53682605  0.21025643  0.85720041    -0.47800
C1603       C  0.55635103  0.19016192  0.87164288     0.77100
O1604       O  0.55784713  0.31272284  0.58075716    -0.64400
O1605       O  0.53394739  0.28419807  0.64110138    -0.51600
C1606       C  0.55172894  0.30595833  0.62658755     0.75500
Zr1607     Zr  0.54522856  0.29388273  0.99794336     2.77500
O1608       O  0.59986768  0.29904359  0.99664994    -0.95200
O1609       O  0.53850661  0.34942822  0.99735417    -0.76000
Zr1610     Zr  0.55048593  0.20306703  0.00063823     2.70100
O1611       O  0.60500991  0.20887039  0.00169061    -0.77300
O1612       O  0.55702018  0.14908453  0.50486194    -0.96300
Zr1613     Zr  0.50287984  0.24712359  0.59647422     2.21500
Zr1614     Zr  0.50326200  0.24514538  0.90197440     2.11100
O1615       O  0.54878744  0.24816994  0.95000451    -2.45000
O1616       O  0.54817951  0.25036848  0.54804883    -0.77100
O1617       O  0.50073879  0.29116823  0.94972605    -0.69200
O1618       O  0.50609806  0.20103081  0.54880786    -2.30200
O1619       O  0.49976707  0.29273877  0.54669870    -2.26400
O1620       O  0.50617933  0.19947527  0.95155135    -0.71000
H1621       H  0.94243916  0.24001059  0.92728856     0.81000
H1622       H  0.50726346  0.18311428  0.57015463     0.82100
H1623       H  0.56630001  0.24905229  0.92850789     0.84300
H1624       H  0.49883820  0.31087507  0.56720550     0.81900
H1625       H  0.99250201  0.13761675  0.50400854     0.44900
H1626       H  0.54566317  0.13946007  0.97450251     0.43900
H1627       H  0.61191963  0.20402613  0.46778182     0.43600
H1628       H  0.60362237  0.32097144  0.00419820     0.41500
H1629       H  0.51673982  0.35249071  0.00368290     0.44700
H1630       H  0.96654615  0.35040751  0.51780298     0.39400
H1631       H  0.89659321  0.27912803  0.53264673     0.45600
H1632       H  0.90309246  0.19655258  0.96379507     0.42000
H1633       H  0.60677028  0.28784401  0.02684824     0.46900
H1634       H  0.93157585  0.34652394  0.51242819     0.45600
H1635       H  0.90505254  0.17282477  0.51732877     0.45800
H1636       H  0.57611586  0.14291818  0.00351052     0.46100
C1637       C  0.63346094  0.12684760  0.69886047     0.48000
H1638       H  0.63206140  0.12684075  0.65737089    -0.01000
C1639       C  0.63611750  0.12622866  0.79545598     0.48000
H1640       H  0.63682941  0.12599167  0.83695523    -0.01000
C1641       C  0.65756797  0.14850105  0.71948549    -0.14700
C1642       C  0.60440424  0.13799145  0.72391314    -0.14500
C1643       C  0.64207848  0.09531132  0.72088993    -0.14900
C1644       C  0.65943429  0.14783239  0.77072270    -0.14800
C1645       C  0.60567699  0.13757293  0.77495706    -0.14400
C1646       C  0.64315791  0.09492008  0.77204340    -0.14700
C1647       C  0.87655186  0.12516857  0.69811392     0.48000
H1648       H  0.87765583  0.12515575  0.65658317    -0.01000
C1649       C  0.87455549  0.12491043  0.79474048     0.48000
H1650       H  0.87393106  0.12378504  0.83614745    -0.01000
C1651       C  0.85451383  0.14884919  0.71932761    -0.14700
C1652       C  0.86525383  0.09464992  0.72017112    -0.14500
C1653       C  0.90674747  0.13339234  0.72266124    -0.14900
C1654       C  0.85347290  0.14901219  0.77066340    -0.14800
C1655       C  0.86433275  0.09439645  0.77129438    -0.14400
C1656       C  0.90575868  0.13335217  0.77376644    -0.14700
C1657       C  0.63404736  0.36303659  0.70167056     0.48000
H1658       H  0.63370118  0.36427028  0.66028192    -0.01000
C1659       C  0.63244207  0.36165434  0.79830106     0.48000
H1660       H  0.63166657  0.36130642  0.83984519    -0.01000
C1661       C  0.65372165  0.33728932  0.72446064    -0.14700
C1662       C  0.64623393  0.39233849  0.72575972    -0.14500
C1663       C  0.60247884  0.35659910  0.72299807    -0.14900
C1664       C  0.65203737  0.33611203  0.77590772    -0.14800
C1665       C  0.64564028  0.39161574  0.77668631    -0.15300
C1666       C  0.60165135  0.35615126  0.77412379    -0.14700
C1667       C  0.87446877  0.36551572  0.79883748     0.48000
H1668       H  0.87585236  0.36595473  0.84031840    -0.01000
C1669       C  0.87149289  0.36433519  0.70225079     0.48000
H1670       H  0.87126502  0.36401353  0.66081655    -0.01000
C1671       C  0.84884559  0.34538615  0.77927846    -0.14700
C1672       C  0.86775136  0.39708961  0.77536221    -0.14500
C1673       C  0.90274028  0.35221427  0.77399761    -0.14900
C1674       C  0.84675766  0.34493529  0.72802194    -0.14800
C1675       C  0.86631803  0.39653149  0.72411683    -0.14400
C1676       C  0.90113515  0.35146279  0.72315563    -0.14700
C1677       C  0.58088876  0.33997054  0.69254992    -0.10700
C1678       C  0.56629316  0.32435885  0.66418178    -0.12300
C1679       C  0.57918267  0.33921966  0.80236984    -0.10700
C1680       C  0.56453466  0.32317764  0.83025565    -0.12300
C1681       C  0.57128404  0.17180081  0.83427008    -0.10700
C1682       C  0.58562695  0.15567744  0.80619519    -0.12300
C1683       C  0.58429155  0.15799163  0.69588496    -0.10700
C1684       C  0.57086467  0.17525589  0.66817232    -0.12300
C1685       C  0.92863790  0.15103624  0.69418710    -0.10700
C1686       C  0.94319008  0.16732126  0.66646919    -0.12300
C1687       C  0.92673976  0.15098237  0.80416037    -0.10700
C1688       C  0.94155413  0.16692680  0.83187286    -0.12300
C1689       C  0.92366774  0.33356970  0.80269531    -0.10700
C1690       C  0.93834217  0.31711219  0.82987015    -0.12300
C1691       C  0.93431658  0.31537254  0.66498414    -0.10700
C1692       C  0.92032004  0.33201318  0.69266814    -0.12300
C1693       C  0.84515648  0.07357592  0.79998944    -0.10700
C1694       C  0.82830360  0.05945349  0.82747816    -0.12300
C1695       C  0.82859741  0.06285291  0.66152208    -0.10700
C1696       C  0.84590800  0.07533217  0.68981491    -0.12300
C1697       C  0.67702369  0.06109071  0.66296130    -0.10700
C1698       C  0.66027345  0.07473433  0.69077890    -0.12300
C1699       C  0.67736730  0.05811293  0.82746622    -0.10700
C1700       C  0.66111157  0.07291515  0.80021068    -0.12300
C1701       C  0.83097832  0.43224196  0.66871045    -0.10700
C1702       C  0.84787626  0.41804382  0.69575974    -0.12300
C1703       C  0.85030249  0.41868954  0.80481159    -0.10700
C1704       C  0.83372225  0.43245555  0.83276046    -0.12300
C1705       C  0.68091910  0.42597069  0.83397200    -0.10700
C1706       C  0.66427574  0.41160886  0.80702685    -0.12300
C1707       C  0.68250245  0.42682644  0.67009812    -0.10700
C1708       C  0.66565301  0.41275237  0.69734258    -0.12300
C1709       C  0.68954803  0.29699548  0.80590298    -0.13900
C1710       C  0.66332533  0.31198332  0.81013099    -0.29100
H1711       H  0.70402181  0.30026085  0.77362648     0.15100
H1712       H  0.65017324  0.30896020  0.84411779     0.15700
C1713       C  0.68143692  0.32561593  0.64778889    -0.13900
C1714       C  0.67127781  0.31622644  0.69262666    -0.29100
H1715       H  0.67718142  0.34871772  0.63410030     0.15100
H1716       H  0.67560375  0.29290569  0.70529689     0.15700
C1717       C  0.81964703  0.30236687  0.81442536    -0.13900
C1718       C  0.82739655  0.33200083  0.81499192    -0.29100
H1719       H  0.82739944  0.28727919  0.78497390     0.15100
H1720       H  0.82081398  0.34632433  0.84627772     0.15700
C1721       C  0.81496626  0.33896969  0.65371303    -0.13900
C1722       C  0.82262436  0.32941309  0.69962863    -0.29100
H1723       H  0.82400664  0.36020779  0.63832867     0.15100
H1724       H  0.81268716  0.30851444  0.71436775     0.15700
C1725       C  0.83284789  0.16783332  0.80086075    -0.13900
C1726       C  0.84043408  0.17584722  0.84736594    -0.29100
H1727       H  0.81103645  0.17412890  0.78563984     0.15100
H1728       H  0.86251601  0.17016193  0.86212063     0.15700
C1729       C  0.83583967  0.16651076  0.68401416    -0.13900
C1730       C  0.82654068  0.19564797  0.68960522    -0.29100
H1731       H  0.83177129  0.15507307  0.64868742     0.15100
H1732       H  0.83019801  0.20822050  0.72389592     0.15700
C1733       C  0.69369799  0.15288111  0.84089720    -0.13900
C1734       C  0.68076378  0.16567745  0.80075330    -0.29100
H1735       H  0.68889579  0.12913856  0.85106073     0.15100
H1736       H  0.68474994  0.18967867  0.79133960     0.15700
C1737       C  0.70211487  0.17973601  0.69042534    -0.13900
C1738       C  0.67458393  0.16774559  0.68380331    -0.29100
H1739       H  0.71456130  0.17733576  0.72490768     0.15100
H1740       H  0.66374041  0.17087063  0.64773995     0.15700
O1741       O  0.71448874  0.67828812  0.09857052    -0.72800
O1742       O  0.74108107  0.70873630  0.15191904    -0.51700
C1743       C  0.72262057  0.68679976  0.14262223     0.81000
O1744       O  0.82669261  0.69581887  0.42714663    -0.57400
O1745       O  0.79307282  0.70372781  0.36410833    -0.50400
C1746       C  0.81790585  0.69316283  0.38196263     0.73000
O1747       O  0.83254427  0.69803586  0.07077662    -0.71900
O1748       O  0.80444430  0.71692773  0.13514084    -0.52500
C1749       C  0.82630024  0.70096829  0.11722451     0.79000
O1750       O  0.70655299  0.66694997  0.42804462    -0.57100
O1751       O  0.72625457  0.69412594  0.36228161    -0.50200
C1752       C  0.71036699  0.67227433  0.38097518     0.75600
Zr1753     Zr  0.72427674  0.69116397  0.01084519     2.54700
O1754       O  0.74812901  0.64105714  0.01281890    -0.77600
O1755       O  0.66982589  0.66892497  0.51393813    -0.91000
Zr1756     Zr  0.80966563  0.71312083  0.99287462     2.64700
O1757       O  0.82422736  0.65949098  0.98373079    -0.96000
O1758       O  0.85512624  0.73994080  0.50598067    -0.78100
O1759       O  0.77084762  0.70120647  0.05024162    -0.81400
O1760       O  0.76437245  0.69631725  0.45835377    -2.16100
O1761       O  0.68568442  0.78403098  0.39147302    -0.64800
O1762       O  0.71730010  0.75719762  0.34050981    -0.49400
C1763       C  0.69501143  0.77540585  0.34810873     0.74000
O1764       O  0.80148980  0.82309674  0.07283642    -0.57700
O1765       O  0.79221786  0.78842330  0.13525941    -0.49700
C1766       C  0.80236263  0.81427781  0.11847521     0.75800
O1767       O  0.80418875  0.80246715  0.39452756    -0.69100
O1768       O  0.78429845  0.76642568  0.34281203    -0.47800
C1769       C  0.80147800  0.78942207  0.35190847     0.77100
O1770       O  0.69651328  0.79483561  0.10055263    -0.64400
O1771       O  0.73217092  0.77474628  0.15280487    -0.51600
C1772       C  0.70878424  0.79104429  0.14402002     0.75500
Zr1773     Zr  0.69724817  0.77714582  0.48000872     2.77500
O1774       O  0.68315002  0.83142955  0.01613252    -0.95200
O1775       O  0.64783887  0.75357441  0.47343984    -0.76000
Zr1776     Zr  0.78306294  0.80135828  0.47785575     2.70100
O1777       O  0.75837670  0.84914975  0.45427943    -0.77300
O1778       O  0.83469859  0.83018257  0.99860688    -0.96300
Zr1779     Zr  0.76417067  0.74664120  0.09757586     2.21500
Zr1780     Zr  0.75372218  0.73570072  0.39852888     2.11100
O1781       O  0.74125894  0.78511218  0.43089564    -2.45000
O1782       O  0.74898082  0.79092084  0.05150314    -0.77100
O1783       O  0.70905613  0.72849429  0.44660973    -0.69200
O1784       O  0.80433183  0.75794464  0.04173889    -2.30200
O1785       O  0.71655877  0.73565090  0.05998381    -2.26400
O1786       O  0.79643233  0.75316551  0.44353199    -0.71000
H1787       H  0.76902475  0.67694469  0.44260502     0.81000
H1788       H  0.82285967  0.76243179  0.05920503     0.82100
H1789       H  0.73822097  0.79999238  0.40448320     0.84300
H1790       H  0.70111161  0.73238923  0.08491398     0.81900
H1791       H  0.85895294  0.74787698  0.95455626     0.44900
H1792       H  0.84528950  0.81700036  0.46627907     0.43900
H1793       H  0.75535705  0.85610129  0.99854111     0.43600
H1794       H  0.68971601  0.83942587  0.44847042     0.41500
H1795       H  0.63948517  0.76130880  0.44149336     0.44700
H1796       H  0.66328904  0.68042687  0.04057350     0.39400
H1797       H  0.74681503  0.63444498  0.04821727     0.45600
H1798       H  0.81735309  0.65042826  0.49798577     0.42000
H1799       H  0.65720608  0.82532533  0.45059460     0.46900
H1800       H  0.67818775  0.64785152  0.03668104     0.45600
H1801       H  0.84426911  0.66017265  0.96738959     0.45800
H1802       H  0.82725806  0.84615697  0.44888648     0.46100
O1803       O  0.69225498  0.93742467  0.08393384    -0.72800
O1804       O  0.71872783  0.96419009  0.14248204    -0.51700
C1805       C  0.69828236  0.94477561  0.12919082     0.81000
O1806       O  0.81950509  0.94324428  0.41450071    -0.57400
O1807       O  0.78975520  0.96510968  0.35445844    -0.50400
C1808       C  0.81240221  0.94885146  0.36882525     0.73000
O1809       O  0.81688350  0.94165533  0.08342749    -0.71900
O1810       O  0.78863954  0.96642510  0.14223332    -0.52500
C1811       C  0.81023137  0.94845352  0.12877451     0.79000
O1812       O  0.69267795  0.93581213  0.41530501    -0.57100
O1813       O  0.71906849  0.96176119  0.35485410    -0.50200
C1814       C  0.69852043  0.94273744  0.36948183     0.75600
Zr1815     Zr  0.70981166  0.94972264  0.99979944     2.54700
O1816       O  0.71404373  0.89414947  0.00187317    -0.77600
O1817       O  0.65657991  0.94301323  0.49681744    -0.91000
Zr1818     Zr  0.79898987  0.95296694  0.99920059     2.64700
O1819       O  0.80202355  0.89734204  0.00423616    -0.96000
O1820       O  0.85480718  0.95386860  0.49698207    -0.78100
O1821       O  0.75443345  0.95092994  0.04891443    -0.81400
O1822       O  0.75559462  0.94985118  0.44854195    -2.16100
O1823       O  0.68917378  0.54781410  0.41378315    -0.64800
O1824       O  0.71836851  0.52389352  0.35520034    -0.49400
C1825       C  0.69644772  0.54154317  0.36840612     0.74000
O1826       O  0.81358773  0.55519340  0.08179908    -0.57700
O1827       O  0.78834739  0.52759614  0.14168295    -0.49700
C1828       C  0.80815914  0.54748834  0.12740664     0.75800
O1829       O  0.81454256  0.55202297  0.41349389    -0.69100
O1830       O  0.78854435  0.52479040  0.35490876    -0.47800
C1831       C  0.80904781  0.54404759  0.36821311     0.77100
O1832       O  0.69101912  0.55041306  0.08152955    -0.64400
O1833       O  0.71834409  0.52523449  0.14141931    -0.51600
C1834       C  0.69722628  0.54360603  0.12718940     0.75500
Zr1835     Zr  0.70703785  0.53677623  0.49836395     2.77500
O1836       O  0.70489414  0.59213156  0.99430438    -0.95200
O1837       O  0.65357203  0.53060312  0.00007368    -0.76000
Zr1838     Zr  0.79565129  0.54170271  0.49795765     2.70100
O1839       O  0.78571715  0.59657562  0.49332538    -0.77300
O1840       O  0.85209271  0.54100754  0.99812948    -0.96300
Zr1841     Zr  0.75288999  0.99796224  0.09507987     2.21500
Zr1842     Zr  0.75309663  0.99606048  0.39960383     2.11100
O1843       O  0.75141569  0.53906707  0.44854516    -2.45000
O1844       O  0.75249580  0.53993379  0.04737512    -0.77100
O1845       O  0.70839405  0.99408130  0.44907323    -0.69200
O1846       O  0.79782967  0.99906151  0.04550677    -2.30200
O1847       O  0.70780343  0.99566099  0.04661660    -2.26400
O1848       O  0.79788760  0.99928677  0.44834765    -0.71000
H1849       H  0.75654552  0.93189843  0.42754461     0.81000
H1850       H  0.81557607  0.00003322  0.06618254     0.82100
H1851       H  0.75057606  0.55646809  0.42602373     0.84300
H1852       H  0.69014881  0.99566384  0.06773479     0.81900
H1853       H  0.85894778  0.97542615  0.01094852     0.44900
H1854       H  0.85869980  0.53790531  0.47643925     0.43900
H1855       H  0.79397872  0.60257477  0.03204320     0.43600
H1856       H  0.71246160  0.59772702  0.45902854     0.41500
H1857       H  0.64462083  0.55174623  0.50610263     0.44700
H1858       H  0.64802375  0.96015028  0.02517769     0.39400
H1859       H  0.71079759  0.88829500  0.03727829     0.45600
H1860       H  0.81963560  0.89219461  0.50774849     0.42000
H1861       H  0.68373267  0.59769749  0.49311211     0.46900
H1862       H  0.65047053  0.92517911  0.01185286     0.45600
H1863       H  0.79297509  0.89202371  0.03702116     0.45800
H1864       H  0.85218453  0.57259170  0.48799371     0.46100
O1865       O  0.94297898  0.80929974  0.08070778    -0.72800
O1866       O  0.96938031  0.78322072  0.14070486    -0.51700
C1867       C  0.95043524  0.80386928  0.12631998     0.81000
O1868       O  0.94758967  0.67925870  0.41651324    -0.57400
O1869       O  0.96934140  0.70915272  0.35576259    -0.50400
C1870       C  0.95278539  0.68647830  0.37064715     0.73000
O1871       O  0.94660913  0.68206662  0.08562593    -0.71900
O1872       O  0.97041257  0.71163850  0.14373623    -0.52500
C1873       C  0.95282484  0.68945471  0.13083488     0.79000
O1874       O  0.94519187  0.80955593  0.41343677    -0.57100
O1875       O  0.96988339  0.78169029  0.35395296    -0.50200
C1876       C  0.95205751  0.80338894  0.36788969     0.75600
Zr1877     Zr  0.95529890  0.78974676  0.99776268     2.54700
O1878       O  0.90107446  0.78292543  0.00371396    -0.77600
O1879       O  0.95549589  0.84608307  0.49800165    -0.91000
Zr1880     Zr  0.95957276  0.69869308  0.00107149     2.64700
O1881       O  0.90519494  0.69249079  0.00372488    -0.96000
O1882       O  0.96033862  0.64335951  0.50499123    -0.78100
O1883       O  0.95646402  0.74469689  0.04861306    -0.81400
O1884       O  0.95622381  0.74438483  0.44892051    -2.16100
O1885       O  0.55836984  0.81015859  0.41434153    -0.64800
O1886       O  0.53448215  0.78138351  0.35518333    -0.49400
C1887       C  0.55194742  0.80345358  0.36894041     0.74000
O1888       O  0.56570607  0.68558882  0.08407181    -0.57700
O1889       O  0.53833664  0.71092775  0.14342072    -0.49700
C1890       C  0.55812485  0.69102068  0.12960744     0.75800
O1891       O  0.56538733  0.68359379  0.41642356    -0.69100
O1892       O  0.53906256  0.70982960  0.35642445    -0.47800
C1893       C  0.55853673  0.68956843  0.37070507     0.77100
O1894       O  0.55902707  0.81112501  0.08356220    -0.64400
O1895       O  0.53544269  0.78169241  0.14306255    -0.51600
C1896       C  0.55278905  0.80394930  0.12913309     0.75500
Zr1897     Zr  0.54654846  0.79206950  0.49833525     2.77500
O1898       O  0.60123574  0.79467814  0.49924493    -0.95200
O1899       O  0.54232172  0.84780496  0.49455987    -0.76000
Zr1900     Zr  0.55195939  0.70138199  0.49995733     2.70100
O1901       O  0.60638429  0.70663037  0.49712242    -0.77300
O1902       O  0.55781492  0.64726169  0.00117522    -0.96300
Zr1903     Zr  0.50453127  0.74506601  0.09720261     2.21500
Zr1904     Zr  0.50437934  0.74372048  0.40161096     2.11100
O1905       O  0.54981745  0.74664431  0.44976672    -2.45000
O1906       O  0.55015619  0.74798917  0.04965304    -0.77100
O1907       O  0.50182238  0.78941398  0.45025561    -0.69200
O1908       O  0.50734509  0.69949985  0.04820864    -2.30200
O1909       O  0.50184517  0.79095124  0.04790720    -2.26400
O1910       O  0.50756427  0.69810493  0.45123826    -0.71000
H1911       H  0.93865739  0.74384167  0.42774616     0.81000
H1912       H  0.50818903  0.68139147  0.06916564     0.82100
H1913       H  0.56729219  0.74766419  0.42821641     0.84300
H1914       H  0.50087541  0.80896819  0.06868619     0.81900
H1915       H  0.97705591  0.63806385  0.97306050     0.44900
H1916       H  0.54073989  0.63833717  0.47723784     0.43900
H1917       H  0.61159175  0.71452177  0.96342999     0.43600
H1918       H  0.60582995  0.81670240  0.50447972     0.41500
H1919       H  0.52198579  0.85158175  0.48068316     0.44700
H1920       H  0.96322699  0.85358875  0.01898167     0.39400
H1921       H  0.89751006  0.77530371  0.03816751     0.45600
H1922       H  0.89836930  0.68730024  0.46730638     0.42000
H1923       H  0.60704863  0.78453629  0.53101165     0.46900
H1924       H  0.92999932  0.85000537  0.00006130     0.45600
H1925       H  0.89907385  0.70101728  0.03639627     0.45800
H1926       H  0.57467916  0.64016626  0.49316819     0.46100
C1927       C  0.63663363  0.62477146  0.19902143     0.48000
H1928       H  0.63521709  0.62444115  0.15753674    -0.01000
C1929       C  0.63925099  0.62505988  0.29557882     0.48000
H1930       H  0.63937504  0.62505551  0.33702240    -0.01000
C1931       C  0.66155750  0.64571715  0.21900958    -0.14700
C1932       C  0.60790630  0.63707108  0.22377341    -0.14500
C1933       C  0.64430268  0.59317179  0.22190858    -0.14900
C1934       C  0.66358519  0.64542763  0.27049079    -0.14800
C1935       C  0.60922375  0.63732102  0.27471807    -0.14400
C1936       C  0.64532756  0.59326088  0.27312633    -0.14700
C1937       C  0.87339157  0.62596300  0.20060913     0.48000
H1938       H  0.87403973  0.62621393  0.15912708    -0.01000
C1939       C  0.87226061  0.62403677  0.29742896     0.48000
H1940       H  0.87188785  0.62278209  0.33888339    -0.01000
C1941       C  0.85119108  0.64896723  0.22364854    -0.14700
C1942       C  0.86304449  0.59474542  0.22215586    -0.14500
C1943       C  0.90362968  0.63463597  0.22461143    -0.14900
C1944       C  0.85015539  0.64747605  0.27460739    -0.14800
C1945       C  0.86275369  0.59367391  0.27331952    -0.14400
C1946       C  0.90305532  0.63364502  0.27575978    -0.14700
C1947       C  0.63331688  0.86352417  0.20010449     0.48000
H1948       H  0.63283206  0.86421936  0.15856103    -0.01000
C1949       C  0.63435506  0.86255754  0.29674694     0.48000
H1950       H  0.63458782  0.86230635  0.33830885    -0.01000
C1951       C  0.65360949  0.83812249  0.22152232    -0.14700
C1952       C  0.64554634  0.89339027  0.22326946    -0.14500
C1953       C  0.60254745  0.85635942  0.22358915    -0.14900
C1954       C  0.65475128  0.83803502  0.27312362    -0.14800
C1955       C  0.64588101  0.89285367  0.27428420    -0.15300
C1956       C  0.60303349  0.85581781  0.27472031    -0.14700
C1957       C  0.87360676  0.86824865  0.29765183     0.48000
H1958       H  0.87449695  0.86880878  0.33916620    -0.01000
C1959       C  0.87152190  0.86711861  0.20094959     0.48000
H1960       H  0.87122156  0.86681027  0.15947377    -0.01000
C1961       C  0.85011485  0.84570913  0.27742358    -0.14700
C1962       C  0.86463681  0.89918437  0.27404646    -0.14500
C1963       C  0.90318008  0.85763762  0.27344416    -0.14900
C1964       C  0.84879208  0.84505621  0.22616066    -0.14800
C1965       C  0.86351035  0.89862677  0.22296660    -0.14400
C1966       C  0.90210571  0.85719172  0.22237068    -0.14700
C1967       C  0.58088642  0.83889632  0.19470362    -0.10700
C1968       C  0.56661388  0.82261651  0.16698092    -0.12300
C1969       C  0.58123886  0.83850444  0.30410340    -0.10700
C1970       C  0.56620246  0.82225316  0.33122311    -0.12300
C1971       C  0.57420285  0.67175982  0.33320961    -0.10700
C1972       C  0.58906989  0.65573458  0.30557450    -0.12300
C1973       C  0.58717104  0.65604831  0.19504535    -0.10700
C1974       C  0.57288200  0.67268605  0.16746479    -0.12300
C1975       C  0.92469917  0.65375590  0.19651645    -0.10700
C1976       C  0.93885447  0.67082379  0.16927185    -0.12300
C1977       C  0.92386172  0.65125836  0.30619799    -0.10700
C1978       C  0.93836026  0.66754906  0.33366286    -0.12300
C1979       C  0.92426428  0.83927763  0.30240196    -0.10700
C1980       C  0.93834153  0.82255756  0.33009738    -0.12300
C1981       C  0.93639819  0.82279781  0.16371770    -0.10700
C1982       C  0.92252275  0.83915826  0.19194152    -0.12300
C1983       C  0.84417112  0.57228479  0.30202839    -0.10700
C1984       C  0.82767991  0.55804610  0.32997318    -0.12300
C1985       C  0.82667922  0.56184162  0.16472251    -0.10700
C1986       C  0.84376279  0.57521638  0.19220519    -0.12300
C1987       C  0.67856331  0.55774695  0.16474080    -0.10700
C1988       C  0.66208653  0.57188171  0.19238192    -0.12300
C1989       C  0.67851630  0.55608249  0.32994952    -0.10700
C1990       C  0.66277241  0.57110439  0.30207010    -0.12300
C1991       C  0.82882767  0.93449346  0.16672098    -0.10700
C1992       C  0.84535394  0.91999992  0.19394589    -0.12300
C1993       C  0.84749241  0.92089427  0.30355049    -0.10700
C1994       C  0.83136401  0.93523114  0.33134735    -0.12300
C1995       C  0.68025595  0.92785232  0.33213775    -0.10700
C1996       C  0.66413398  0.91348952  0.30425299    -0.12300
C1997       C  0.68016628  0.92979618  0.16705863    -0.10700
C1998       C  0.66379316  0.91466776  0.19390183    -0.12300
C1999       C  0.68007639  0.78967458  0.30457995    -0.13900
C2000       C  0.67364693  0.81972170  0.30744187    -0.29100
H2001       H  0.67437142  0.77615096  0.27205346     0.15100
H2002       H  0.68015130  0.83186765  0.34114379     0.15700
C2003       C  0.69566707  0.80721383  0.18703122    -0.13900
C2004       C  0.66703379  0.81638162  0.18596525    -0.29100
H2005       H  0.70997018  0.81271424  0.21858732     0.15100
H2006       H  0.65347334  0.81121316  0.15331851     0.15700
C2007       C  0.82001797  0.80182328  0.31124605    -0.13900
C2008       C  0.82873922  0.83132071  0.31250031    -0.29100
H2009       H  0.82795666  0.78617663  0.28292740     0.15100
H2010       H  0.82179180  0.84564136  0.34358029     0.15700
C2011       C  0.81737990  0.83543002  0.15272354    -0.13900
C2012       C  0.82774174  0.82599599  0.19698745    -0.29100
H2013       H  0.82224829  0.85853556  0.13924748     0.15100
H2014       H  0.82254318  0.80295346  0.20936210     0.15700
C2015       C  0.82963238  0.66613764  0.30486285    -0.13900
C2016       C  0.83820419  0.67622980  0.34942654    -0.29100
H2017       H  0.80735124  0.67148207  0.29060406     0.15100
H2018       H  0.86071799  0.67137197  0.36324945     0.15700
C2019       C  0.83384154  0.67137367  0.19379611    -0.13900
C2020       C  0.84509430  0.68313050  0.15142075    -0.29100
H2021       H  0.81141275  0.67786026  0.20607636     0.15100
H2022       H  0.86748912  0.67675482  0.13875771     0.15700
C2023       C  0.69407022  0.65257415  0.34604386    -0.13900
C2024       C  0.68556115  0.66282194  0.30057823    -0.29100
H2025       H  0.68673611  0.63026661  0.35984232     0.15100
H2026       H  0.69313203  0.68509532  0.28688604     0.15700
C2027       C  0.70826998  0.67120057  0.18542169    -0.13900
C2028       C  0.67902656  0.66388830  0.18223349    -0.29100
H2029       H  0.72134557  0.66622938  0.21864452     0.15100
H2030       H  0.66713812  0.66937428  0.14782548     0.15700
O2031       O  0.70928749  0.68352597  0.59725019    -0.72800
O2032       O  0.72851295  0.72178380  0.64569188    -0.51700
C2033       C  0.71424958  0.69648725  0.63978978     0.81000
O2034       O  0.82322941  0.70554939  0.90706440    -0.57400
O2035       O  0.78522060  0.71800545  0.85329231    -0.50400
C2036       C  0.81152984  0.70710007  0.86356504     0.73000
O2037       O  0.81597776  0.70584921  0.59171292    -0.71900
O2038       O  0.78598929  0.73432139  0.64277605    -0.52500
C2039       C  0.80689373  0.71469993  0.63488434     0.79000
O2040       O  0.70531888  0.67423826  0.92982964    -0.57100
O2041       O  0.71867781  0.70683887  0.86620208    -0.50200
C2042       C  0.70547487  0.68269995  0.88358010     0.75600
Zr2043     Zr  0.72036511  0.69053291  0.50777270     2.54700
O2044       O  0.74327874  0.64075127  0.52329555    -0.77600
O2045       O  0.67479674  0.66710882  0.01755984    -0.91000
Zr2046     Zr  0.80627110  0.71492823  0.50415090     2.64700
O2047       O  0.82912311  0.66473352  0.51888268    -0.96000
O2048       O  0.86034631  0.73319119  0.98287921    -0.78100
O2049       O  0.76258739  0.70747354  0.55297236    -0.81400
O2050       O  0.76350111  0.70102018  0.95294817    -2.16100
O2051       O  0.67978187  0.79126360  0.93146827    -0.64800
O2052       O  0.70934313  0.77501127  0.86673880    -0.49400
C2053       C  0.68625105  0.78912950  0.88461328     0.74000
O2054       O  0.79809705  0.82584346  0.55489616    -0.57700
O2055       O  0.77782467  0.79900273  0.62024242    -0.49700
C2056       C  0.79428876  0.82055557  0.60164163     0.75800
O2057       O  0.81223056  0.79992214  0.91351977    -0.69100
O2058       O  0.77975280  0.78087299  0.85574375    -0.47800
C2059       C  0.80408185  0.79488600  0.86856056     0.77100
O2060       O  0.67737233  0.79592574  0.55930597    -0.64400
O2061       O  0.71034391  0.78524223  0.62234842    -0.51600
C2062       C  0.68582413  0.79670021  0.60526354     0.75500
Zr2063     Zr  0.70257591  0.77918342  0.01268892     2.77500
O2064       O  0.67558645  0.82829796  0.47088572    -0.95200
O2065       O  0.65296622  0.75717649  0.02826853    -0.76000
Zr2066     Zr  0.78794539  0.80094392  0.99385377     2.70100
O2067       O  0.76644704  0.84980221  0.96825913    -0.77300
O2068       O  0.82941220  0.83148879  0.47709321    -0.96300
Zr2069     Zr  0.75043327  0.75642270  0.58547232     2.21500
Zr2070     Zr  0.74933629  0.74556296  0.90597174     2.11100
O2071       O  0.74146306  0.79107216  0.95418163    -2.45000
O2072       O  0.73886613  0.79589073  0.52670864    -0.77100
O2073       O  0.70921066  0.73469313  0.96323605    -0.69200
O2074       O  0.79535550  0.76330087  0.53833718    -2.30200
O2075       O  0.70708348  0.73896247  0.54137634    -2.26400
O2076       O  0.79540353  0.75636738  0.94652398    -0.71000
H2077       H  0.76605751  0.68348839  0.93140433     0.81000
H2078       H  0.81222699  0.76924827  0.55883118     0.82100
H2079       H  0.73605819  0.80821650  0.93295479     0.84300
H2080       H  0.68986918  0.73668291  0.56331013     0.81900
H2081       H  0.85447798  0.75411329  0.47691462     0.44900
H2082       H  0.85074628  0.81459643  0.99485978     0.43900
H2083       H  0.76579138  0.85363032  0.42007951     0.43600
H2084       H  0.68757785  0.84043204  0.98285969     0.41500
H2085       H  0.65090794  0.75647509  0.06509036     0.44700
H2086       H  0.65878892  0.68338898  0.53567238     0.39400
H2087       H  0.76023230  0.64507087  0.54618732     0.45600
H2088       H  0.81056681  0.65141743  0.95774375     0.42000
H2089       H  0.66097202  0.82901736  0.01685210     0.46900
H2090       H  0.67216834  0.65013598  0.53466550     0.45600
H2091       H  0.84916995  0.66566380  0.50267891     0.45800
H2092       H  0.83565248  0.84251742  0.96742852     0.46100
O2093       O  0.69427167  0.93519395  0.58287575    -0.72800
O2094       O  0.71975650  0.96297707  0.64143522    -0.51700
C2095       C  0.69995947  0.94289193  0.62822071     0.81000
O2096       O  0.81601299  0.93856280  0.91567598    -0.57400
O2097       O  0.78794015  0.96227178  0.85526679    -0.50400
C2098       C  0.80920048  0.94426134  0.86985684     0.73000
O2099       O  0.81857050  0.94247152  0.58162721    -0.71900
O2100       O  0.78893069  0.96536481  0.64061349    -0.52500
C2101       C  0.81115214  0.94825705  0.62709521     0.79000
O2102       O  0.69158664  0.93636619  0.91676034    -0.57100
O2103       O  0.71891476  0.96102357  0.85604925    -0.50200
C2104       C  0.69800565  0.94251880  0.87088879     0.75600
Zr2105     Zr  0.71119266  0.94875392  0.49845270     2.54700
O2106       O  0.71906852  0.89343075  0.49970307    -0.77600
O2107       O  0.65501057  0.94602845  0.99873159    -0.91000
Zr2108     Zr  0.79993478  0.95392784  0.49771890     2.64700
O2109       O  0.79859877  0.89808694  0.50006138    -0.96000
O2110       O  0.85381121  0.95511973  0.99682421    -0.78100
O2111       O  0.75565528  0.95079380  0.54762266    -0.81400
O2112       O  0.75442974  0.94944866  0.95047590    -2.16100
O2113       O  0.69044888  0.54854754  0.91415271    -0.64800
O2114       O  0.71891123  0.52473089  0.85460232    -0.49400
C2115       C  0.69731833  0.54253179  0.86861054     0.74000
O2116       O  0.81303639  0.55575851  0.58164278    -0.57700
O2117       O  0.78728025  0.52935770  0.64236408    -0.49700
C2118       C  0.80737816  0.54876843  0.62756362     0.75800
O2119       O  0.81364570  0.55475102  0.91403768    -0.69100
O2120       O  0.78763089  0.52810048  0.85469664    -0.47800
C2121       C  0.80746014  0.54791108  0.86856621     0.77100
O2122       O  0.68993424  0.55110279  0.58222745    -0.64400
O2123       O  0.71772520  0.52657829  0.64235081    -0.51600
C2124       C  0.69641969  0.54470753  0.62803793     0.75500
Zr2125     Zr  0.70813512  0.53634448  0.99806558     2.77500
O2126       O  0.70547457  0.59261083  0.49324436    -0.95200
O2127       O  0.65245901  0.53082590  0.49978740    -0.76000
Zr2128     Zr  0.79715509  0.54078419  0.99810572     2.70100
O2129       O  0.79397855  0.59649765  0.99648900    -0.77300
O2130       O  0.84964675  0.55155684  0.50180110    -0.96300
Zr2131     Zr  0.75328714  0.99736198  0.59436734     2.21500
Zr2132     Zr  0.75308175  0.99526726  0.90020183     2.11100
O2133       O  0.75269373  0.53933423  0.94893606    -2.45000
O2134       O  0.75133753  0.54070022  0.54790620    -0.77100
O2135       O  0.70800738  0.99427502  0.94881087    -0.69200
O2136       O  0.79790911  0.99969829  0.54442642    -2.30200
O2137       O  0.70838869  0.99463042  0.54544559    -2.26400
O2138       O  0.79809120  0.99776670  0.94857907    -0.71000
H2139       H  0.75493727  0.93125304  0.92998716     0.81000
H2140       H  0.81579684  0.00050109  0.56478247     0.82100
H2141       H  0.75192727  0.55718600  0.92728079     0.84300
H2142       H  0.69070531  0.99390491  0.56646669     0.81900
H2143       H  0.86048983  0.97518357  0.50570137     0.44900
H2144       H  0.85793966  0.53008968  0.02918342     0.43900
H2145       H  0.77858411  0.60035850  0.45882911     0.43600
H2146       H  0.71771236  0.59798364  0.96545454     0.41500
H2147       H  0.64993857  0.50938250  0.98835984     0.44700
H2148       H  0.64900648  0.95728557  0.52260447     0.39400
H2149       H  0.72733231  0.88894139  0.53328379     0.45600
H2150       H  0.82380464  0.89323729  0.00858663     0.42000
H2151       H  0.68408236  0.59635996  0.98288944     0.46900
H2152       H  0.65268783  0.92221953  0.51070110     0.45600
H2153       H  0.78726595  0.89298136  0.53093364     0.45800
H2154       H  0.85782534  0.52672255  0.97109015     0.46100
O2155       O  0.94159334  0.80629561  0.58082345    -0.72800
O2156       O  0.96805323  0.78023496  0.64080618    -0.51700
C2157       C  0.94844417  0.80027625  0.62647429     0.81000
O2158       O  0.94422176  0.68154447  0.91821217    -0.57400
O2159       O  0.96772732  0.70993243  0.85732501    -0.50400
C2160       C  0.94942826  0.68874199  0.87229179     0.73000
O2161       O  0.94551638  0.68222534  0.58401503    -0.71900
O2162       O  0.97059582  0.71033436  0.64262012    -0.52500
C2163       C  0.95220286  0.68897456  0.62937025     0.79000
O2164       O  0.93974865  0.80459030  0.91332526    -0.57100
O2165       O  0.96613889  0.77813212  0.85411802    -0.50200
C2166       C  0.94623821  0.79797760  0.86775339     0.75600
Zr2167     Zr  0.95623142  0.79005775  0.49711630     2.54700
O2168       O  0.90164914  0.78695571  0.49248978    -0.77600
O2169       O  0.95117046  0.84547308  0.99093128    -0.91000
Zr2170     Zr  0.95860541  0.69921584  0.49944621     2.64700
O2171       O  0.90384137  0.69965826  0.49684129    -0.96000
O2172       O  0.96724763  0.64329761  0.00512978    -0.78100
O2173       O  0.95667000  0.74483777  0.54769922    -0.81400
O2174       O  0.95615909  0.74375051  0.95076280    -2.16100
O2175       O  0.55875932  0.81198106  0.91613189    -0.64800
O2176       O  0.53599659  0.78241323  0.85676893    -0.49400
C2177       C  0.55301212  0.80475147  0.87063881     0.74000
O2178       O  0.56633097  0.68518671  0.58441127    -0.57700
O2179       O  0.53894201  0.71080642  0.64344509    -0.49700
C2180       C  0.55870086  0.69088020  0.62987384     0.75800
O2181       O  0.56486446  0.68540242  0.91622231    -0.69100
O2182       O  0.53829448  0.71124814  0.85622213    -0.47800
C2183       C  0.55770878  0.69101765  0.87058278     0.77100
O2184       O  0.55908619  0.81103361  0.58173032    -0.64400
O2185       O  0.53655112  0.78142121  0.64203916    -0.51600
C2186       C  0.55351104  0.80388952  0.62759782     0.75500
Zr2187     Zr  0.54661206  0.79323387  0.99985232     2.77500
O2188       O  0.60141892  0.79308975  0.99999736    -0.95200
O2189       O  0.54340641  0.84908700  0.00053586    -0.76000
Zr2190     Zr  0.55208305  0.70294946  0.00004680     2.70100
O2191       O  0.60644212  0.71063409  0.99892065    -0.77300
O2192       O  0.55406332  0.64545353  0.50443184    -0.96300
Zr2193     Zr  0.50525686  0.74456795  0.59704218     2.21500
Zr2194     Zr  0.50477666  0.74559873  0.90219796     2.11100
O2195       O  0.55010834  0.74827918  0.95034707    -2.45000
O2196       O  0.55053833  0.74695756  0.54847884    -0.77100
O2197       O  0.50208969  0.79098218  0.95138075    -0.69200
O2198       O  0.50772945  0.69851015  0.54914079    -2.30200
O2199       O  0.50227150  0.79013118  0.54713418    -2.26400
O2200       O  0.50763442  0.69983214  0.95135362    -0.71000
H2201       H  0.93835630  0.74275760  0.93010506     0.81000
H2202       H  0.50867615  0.68054931  0.57046112     0.82100
H2203       H  0.56758674  0.74937554  0.92880259     0.84300
H2204       H  0.50160569  0.80839020  0.56735239     0.81900
H2205       H  0.93892551  0.63691513  0.50547346     0.44900
H2206       H  0.54424670  0.63976714  0.97459625     0.43900
H2207       H  0.61152666  0.71629423  0.52937322     0.43600
H2208       H  0.60726618  0.78580375  0.96639277     0.41500
H2209       H  0.52436798  0.85377549  0.98285005     0.44700
H2210       H  0.96847788  0.85198462  0.52639416     0.39400
H2211       H  0.89419295  0.79921842  0.52096447     0.45600
H2212       H  0.90199579  0.67004441  0.00733441     0.42000
H2213       H  0.60701085  0.81512861  0.99997879     0.46900
H2214       H  0.93481205  0.85150811  0.50873082     0.45600
H2215       H  0.89757526  0.68683159  0.52573979     0.45800
H2216       H  0.57839382  0.64357813  0.98811673     0.46100
C2217       C  0.63620411  0.62621125  0.70117491     0.48000
H2218       H  0.63466645  0.62525964  0.65973376    -0.01000
C2219       C  0.63887633  0.62748362  0.79762138     0.48000
H2220       H  0.63883331  0.62752914  0.83904234    -0.01000
C2221       C  0.65970134  0.64907282  0.72051371    -0.14700
C2222       C  0.60690829  0.63698032  0.72564140    -0.14500
C2223       C  0.64547608  0.59538160  0.72443619    -0.14900
C2224       C  0.66166351  0.64971840  0.77217069    -0.14800
C2225       C  0.60814980  0.63766076  0.77661382    -0.14400
C2226       C  0.64666090  0.59589400  0.77543022    -0.14700
C2227       C  0.86961574  0.62981969  0.69714518     0.48000
H2228       H  0.87245658  0.62784107  0.65599417    -0.01000
C2229       C  0.86334147  0.63443736  0.79318798     0.48000
H2230       H  0.86047024  0.63634403  0.83432710    -0.01000
C2231       C  0.84615823  0.65366087  0.71257320    -0.14700
C2232       C  0.85846097  0.60009930  0.72215310    -0.14500
C2233       C  0.89844536  0.64018995  0.72395079    -0.14900
C2234       C  0.84261266  0.65619728  0.76317033    -0.14800
C2235       C  0.85561403  0.60236810  0.77290952    -0.14400
C2236       C  0.89523536  0.64241330  0.77465234    -0.14700
C2237       C  0.63532927  0.86263308  0.70014670     0.48000
H2238       H  0.63476889  0.86470850  0.65886769    -0.01000
C2239       C  0.63588417  0.86058271  0.79688876     0.48000
H2240       H  0.63589196  0.86063974  0.83833099    -0.01000
C2241       C  0.65579735  0.83710595  0.72134537    -0.14700
C2242       C  0.64753251  0.89208044  0.72400362    -0.14500
C2243       C  0.60435641  0.85527441  0.72307800    -0.14900
C2244       C  0.65605625  0.83580134  0.77283967    -0.14800
C2245       C  0.64764149  0.89106667  0.77497968    -0.15300
C2246       C  0.60467124  0.85451352  0.77427763    -0.14700
C2247       C  0.86347419  0.85934979  0.79255241     0.48000
H2248       H  0.86199610  0.85757610  0.83392989    -0.01000
C2249       C  0.86674774  0.86403963  0.69596468     0.48000
H2250       H  0.86873463  0.86598142  0.65471322    -0.01000
C2251       C  0.83957051  0.84030234  0.76483570    -0.14700
C2252       C  0.85827998  0.89223612  0.77287181    -0.14500
C2253       C  0.89350067  0.84790445  0.77120856    -0.14900
C2254       C  0.84083422  0.84330600  0.71417889    -0.14800
C2255       C  0.85997807  0.89472019  0.72176935    -0.14400
C2256       C  0.89517675  0.85015779  0.72033935    -0.14700
C2257       C  0.58240871  0.83844699  0.69341773    -0.10700
C2258       C  0.56780390  0.82262822  0.66523332    -0.12300
C2259       C  0.58236770  0.83832838  0.80399931    -0.10700
C2260       C  0.56742541  0.82304985  0.83259040    -0.12300
C2261       C  0.57295344  0.67275104  0.83342423    -0.10700
C2262       C  0.58778340  0.65628956  0.80655585    -0.12300
C2263       C  0.58653582  0.65603245  0.69661952    -0.10700
C2264       C  0.57303368  0.67268823  0.66814411    -0.12300
C2265       C  0.92184212  0.65603652  0.69590298    -0.10700
C2266       C  0.93740575  0.67112486  0.66781931    -0.12300
C2267       C  0.91668733  0.65800133  0.80667850    -0.10700
C2268       C  0.93271149  0.67198381  0.83516594    -0.12300
C2269       C  0.91424891  0.82981016  0.80158469    -0.10700
C2270       C  0.92970729  0.81454161  0.82961720    -0.12300
C2271       C  0.93261186  0.81776933  0.66379430    -0.10700
C2272       C  0.91700814  0.83322773  0.69090765    -0.12300
C2273       C  0.83891016  0.58044647  0.80313063    -0.10700
C2274       C  0.82418502  0.56430527  0.83080006    -0.12300
C2275       C  0.82550935  0.56371729  0.66486769    -0.10700
C2276       C  0.84134577  0.57822575  0.69289241    -0.12300
C2277       C  0.67810002  0.55916827  0.66587342    -0.10700
C2278       C  0.66240667  0.57361890  0.69438111    -0.12300
C2279       C  0.67935098  0.55776017  0.83113288    -0.10700
C2280       C  0.66370840  0.57358946  0.80443418    -0.12300
C2281       C  0.82913710  0.93379199  0.66539179    -0.10700
C2282       C  0.84422659  0.91836314  0.69356058    -0.12300
C2283       C  0.84197501  0.91391504  0.80380587    -0.10700
C2284       C  0.82688465  0.92889241  0.83236322    -0.12300
C2285       C  0.68022999  0.92709388  0.83367273    -0.10700
C2286       C  0.66488532  0.91211286  0.80557387    -0.12300
C2287       C  0.68214142  0.92785566  0.66657774    -0.10700
C2288       C  0.66599827  0.91326357  0.69465554    -0.12300
C2289       C  0.66602842  0.80563569  0.84993797    -0.13900
C2290       C  0.67412011  0.81360112  0.80306615    -0.29100
H2291       H  0.64474377  0.81352625  0.86518364     0.15100
H2292       H  0.69511099  0.80498626  0.78777786     0.15700
C2293       C  0.66591497  0.81231696  0.64062755    -0.13900
C2294       C  0.67386788  0.81716115  0.68839581    -0.29100
H2295       H  0.64451761  0.82049464  0.62631922     0.15100
H2296       H  0.69469930  0.80756381  0.70272653     0.15700
C2297       C  0.82538549  0.80574833  0.83130991    -0.13900
C2298       C  0.81686752  0.82164509  0.79132185    -0.29100
H2299       H  0.84906633  0.80529895  0.84172936     0.15100
H2300       H  0.79334491  0.82268034  0.78022503     0.15700
C2301       C  0.81213239  0.83909861  0.63599509    -0.13900
C2302       C  0.81937245  0.82783858  0.68100962    -0.29100
H2303       H  0.82171676  0.86058121  0.62245562     0.15100
H2304       H  0.80956628  0.80629281  0.69396072     0.15700
C2305       C  0.82080354  0.67653421  0.78821056    -0.13900
C2306       C  0.83088448  0.69436946  0.82475794    -0.29100
H2307       H  0.79695297  0.67502840  0.77948055     0.15100
H2308       H  0.85499459  0.69475487  0.83222562     0.15700
C2309       C  0.82991330  0.67072159  0.67382091    -0.13900
C2310       C  0.82077057  0.69991913  0.67805229    -0.29100
H2311       H  0.82737911  0.65894133  0.63838712     0.15100
H2312       H  0.82315818  0.71275684  0.71234534     0.15700
C2313       C  0.68935497  0.66241464  0.84887470    -0.13900
C2314       C  0.68092845  0.67056684  0.80230097    -0.29100
H2315       H  0.68389184  0.63969862  0.86324957     0.15100
H2316       H  0.68683538  0.69307661  0.78754899     0.15700
C2317       C  0.70194532  0.68145857  0.68494368    -0.13900
C2318       C  0.67482854  0.66827125  0.68215313    -0.29100
H2319       H  0.71504825  0.68117395  0.71902521     0.15100
H2320       H  0.66307089  0.66967321  0.64660438     0.15700
loop_ 
_geom_bond_atom_site_label_1 
_geom_bond_atom_site_label_2 
_geom_bond_distance 
_geom_bond_site_symmetry_2 
_ccdc_geom_bond_type 
O1          Zr13   2.454       .  S
O1            C3   1.292       .  A
O2          Zr39   2.390       .  S
O2            C3   1.277       .  A
C3          C287   1.463       .  S
O4         Zr306   2.445       .  S
O4            C6   1.288       .  A
O5          Zr40   2.399       .  S
O5            C6   1.282       .  A
C6          C276   1.462       .  S
O7          Zr16   2.442       .  S
O7            C9   1.290       .  A
O8          Zr39   2.422       .  S
O8            C9   1.283       .  A
C9          C280   1.478       .  S
O10        Zr303   2.456       .  S
O10          C12   1.291       .  A
O11         Zr40   2.406       .  S
O11          C12   1.283       .  A
C12         C283   1.469       .  S
Zr13        O300   2.442   1_554  S
Zr13         O14   2.430       .  S
Zr13        O305   2.434       .  S
Zr13         O19   2.354       .  S
Zr13         O45   2.367       .  S
Zr13        O310   2.370   1_554  S
Zr13        O333   2.372   1_554  S
O14          H57   0.990       .  S
O15        Zr303   2.435       .  S
O15         H346   0.990       .  S
O15         H350   0.990       .  S
Zr16        O294   2.458   1_554  S
Zr16         O17   2.439       .  S
Zr16        O308   2.427       .  S
Zr16         O19   2.357       .  S
Zr16         O44   2.378       .  S
Zr16        O310   2.376   1_554  S
Zr16        O336   2.347   1_554  S
O17          H61   0.990       .  S
O17         H348   0.989   1_554  S
O18        Zr306   2.423       .  S
O18         H341   0.990       .  S
O19         Zr39   2.375       .  S
O20         Zr40   2.393       .  S
O20        Zr303   2.364       .  S
O20        Zr306   2.378       .  S
O20          H47   0.966       .  S
O21         Zr33   2.452       .  S
O21          C23   1.292       .  A
O22         Zr40   2.407       .  S
O22          C23   1.281       .  A
C23         C259   1.472       .  S
O24        Zr326   2.403   1_554  S
O24          C26   1.277       .  A
O25         Zr39   2.402       .  S
O25          C26   1.283       .  A
C26         C271   1.450       .  S
O27         Zr36   2.406       .  S
O27          C29   1.273       .  A
O28         Zr40   2.443       .  S
O28          C29   1.285       .  A
C29         C267   1.454       .  S
O30        Zr323   2.446   1_554  S
O30          C32   1.289       .  A
O31         Zr39   2.416       .  S
O31          C32   1.284       .  A
C32         C263   1.471       .  S
Zr33        O320   2.448       .  S
Zr33         O35   2.429       .  S
Zr33        O324   2.435       .  S
Zr33         O41   2.376       .  S
Zr33         O43   2.360       .  S
Zr33        O332   2.377       .  S
Zr33        O335   2.366       .  S
O34        Zr323   2.436       .  S
O34         H344   0.990       .  S
O34         H349   0.990       .  S
O35          H55   0.990       .  S
Zr36        O314   2.406       .  S
Zr36         O37   2.435       .  S
Zr36        O328   2.439       .  S
Zr36         O41   2.364       .  S
Zr36         O46   2.360       .  S
Zr36        O332   2.366       .  S
Zr36        O334   2.381       .  S
O37         H343   0.988       .  S
O38        Zr326   2.438       .  S
O38         H342   0.989       .  S
O38         H352   0.991       .  S
Zr39         O42   2.381       .  S
Zr39         O44   2.374       .  S
Zr39         O45   2.388       .  S
Zr40         O41   2.387       .  S
Zr40         O43   2.381       .  S
Zr40         O46   2.369       .  S
O41          H49   0.964       .  S
O42        Zr323   2.385   1_554  S
O42        Zr326   2.367   1_554  S
O43        Zr303   2.368       .  S
O44        Zr326   2.372   1_554  S
O44          H48   0.967       .  S
O45        Zr323   2.370   1_554  S
O45          H50   0.967       .  S
O46        Zr306   2.346       .  S
H51         O308   0.990       .  S
H52         O328   0.990       .  S
H53         O327   0.989       .  S
H54         O324   0.990       .  S
H56         O305   0.989       .  S
H58         O307   0.990       .  S
H59         O324   0.990       .  S
H60         O305   0.991       .  S
H62         O328   0.990       .  S
O63         Zr75   2.440       .  S
O63          C65   1.285       .  A
O64        Zr101   2.431       .  S
O64          C65   1.287       .  A
C65         C257   1.433       .  S
O66        Zr368   2.435       .  S
O66          C68   1.286       .  A
O67        Zr102   2.455       .  S
O67          C68   1.292       .  A
C68         C254   1.446       .  S
O69         Zr78   2.447       .  S
O69          C71   1.288       .  A
O70        Zr101   2.440       .  S
O70          C71   1.288       .  A
C71         C251   1.441       .  S
O72        Zr365   2.448       .  S
O72          C74   1.288       .  A
O73        Zr102   2.450       .  S
O73          C74   1.290       .  A
C74         C255   1.449       .  S
Zr75        O362   2.444   1_554  S
Zr75         O76   2.431       .  S
Zr75        O367   2.437       .  S
Zr75         O81   2.377       .  S
Zr75        O107   2.369       .  S
Zr75        O372   2.374   1_554  S
Zr75        O395   2.365   1_554  S
O76         H119   0.990       .  S
O77        Zr365   2.437       .  S
O77         H408   0.990       .  S
O77         H412   0.990       .  S
Zr78        O356   2.443   1_554  S
Zr78         O79   2.428       .  S
Zr78        O370   2.434   1_554  S
Zr78         O81   2.375       .  S
Zr78        O106   2.363       .  S
Zr78        O372   2.379   1_554  S
Zr78        O398   2.370   1_554  S
O79         H123   0.990       .  S
O79         H410   0.990       .  S
O80        Zr368   2.433       .  S
O80         H403   0.990       .  S
O81        Zr101   2.394       .  S
O82        Zr102   2.396       .  S
O82        Zr365   2.371       .  S
O82        Zr368   2.377       .  S
O82         H109   0.966       .  S
O83         Zr95   2.436       .  S
O83          C85   1.285       .  A
O84        Zr682   2.439   1_545  S
O84          C85   1.288       .  A
C85         C249   1.439       .  S
O86        Zr388   2.448   1_554  S
O86          C88   1.288       .  A
O87        Zr681   2.446   1_545  S
O87          C88   1.289       .  A
C88         C245   1.445       .  S
O89         Zr98   2.441       .  S
O89          C91   1.286       .  A
O90        Zr682   2.442   1_545  S
O90          C91   1.289       .  A
C91         C244   1.442       .  S
O92        Zr385   2.440   1_554  S
O92          C94   1.286       .  A
O93        Zr681   2.452   1_545  S
O93          C94   1.291       .  A
C94         C247   1.445       .  S
Zr95        O382   2.440       .  S
Zr95        O386   2.432       .  S
Zr95        O387   2.434       .  S
Zr95        O103   2.374       .  S
Zr95        O394   2.379       .  S
Zr95        O977   2.367   1_545  S
Zr95        O685   2.369   1_545  S
O96        Zr385   2.432       .  S
O96         H406   0.990       .  S
O96         H411   0.990       .  S
O97        Zr385   2.435   1_554  S
O97         H407   0.990   1_554  S
Zr98        O376   2.449       .  S
Zr98         O99   2.429       .  S
Zr98        O390   2.436       .  S
Zr98        O103   2.372       .  S
Zr98        O394   2.375       .  S
Zr98        O688   2.371   1_545  S
Zr98        O976   2.361   1_545  S
O99         H405   0.989       .  S
O100       Zr388   2.437   1_554  S
O100        H404   0.990   1_554  S
O100        H414   0.991   1_554  S
Zr101       O667   2.438       .  S
Zr101       O673   2.447       .  S
Zr101       O106   2.387       .  S
Zr101       O107   2.387       .  S
Zr101       O684   2.393       .  S
Zr102       O664   2.450       .  S
Zr102       O670   2.440       .  S
Zr102       O105   2.382       .  S
Zr102       O108   2.386       .  S
Zr102       O683   2.403       .  S
O103       Zr682   2.391   1_545  S
O103        H111   0.965       .  S
O104       Zr385   2.383   1_554  S
O104       Zr388   2.376   1_554  S
O104       Zr681   2.393   1_545  S
O105       Zr365   2.370       .  S
O105       Zr675   2.362       .  S
O106       Zr968   2.356       .  S
O106        H110   0.965       .  S
O107       Zr965   2.355       .  S
O107        H112   0.966       .  S
O108       Zr368   2.372       .  S
O108       Zr678   2.370       .  S
H113        O370   0.990       .  S
H114        O390   0.990       .  S
H115        O389   0.990       .  S
H116        O386   0.990       .  S
H117        O387   0.990       .  S
H118        O367   0.990       .  S
H120        O369   0.990       .  S
H121        O386   0.991       .  S
H122        O367   0.990       .  S
H124        O390   0.990       .  S
O125       Zr137   2.452   1_554  S
O125        C127   1.287       .  A
O126      Zr1323   2.454       .  S
O126        C127   1.291       .  A
C127        C241   1.452       .  S
O128       Zr430   2.452       .  S
O128        C130   1.287       .  A
O129      Zr1324   2.447       .  S
O129        C130   1.289       .  A
C130        C238   1.450       .  S
O131       Zr140   2.434       .  S
O131        C133   1.285       .  A
O132      Zr1323   2.436       .  S
O132        C133   1.288       .  A
C133        C236   1.435       .  S
O134       Zr427   2.437       .  S
O134        C136   1.286       .  A
O135      Zr1324   2.441       .  S
O135        C136   1.288       .  A
C136        C240   1.440       .  S
Zr137       O424   2.439       .  S
Zr137       O138   2.428       .  S
Zr137       O429   2.438       .  S
Zr137       O143   2.376   1_556  S
Zr137       O434   2.378       .  S
Zr137      O1617   2.369       .  S
Zr137      O1329   2.366   1_556  S
O138        H181   0.990   1_556  S
O139       Zr427   2.437       .  S
O139        H470   0.990       .  S
O139        H474   0.990       .  S
Zr140       O418   2.447   1_554  S
Zr140       O141   2.430   1_554  S
Zr140       O432   2.435       .  S
Zr140       O143   2.385       .  S
Zr140       O434   2.373   1_554  S
Zr140      O1328   2.365       .  S
Zr140      O1620   2.366   1_554  S
O141        H185   0.990   1_556  S
O141        H472   0.990       .  S
O142       Zr430   2.437       .  S
O142        H465   0.990       .  S
O143      Zr1323   2.396       .  S
O144       Zr427   2.381       .  S
O144       Zr430   2.377       .  S
O144      Zr1324   2.396       .  S
O144        H171   0.966       .  S
O145       Zr157   2.436       .  S
O145        C147   1.286       .  A
O146       Zr164   2.436       .  S
O146        C147   1.288       .  A
C147        C230   1.436       .  S
O148       Zr450   2.447   1_554  S
O148        C150   1.288       .  A
O149       Zr163   2.438       .  S
O149        C150   1.288       .  A
C150        C234   1.441       .  S
O151       Zr160   2.440       .  S
O151        C153   1.286       .  A
O152       Zr164   2.449       .  S
O152        C153   1.290       .  A
C153        C231   1.445       .  S
O154       Zr447   2.446   1_554  S
O154        C156   1.287       .  A
O155       Zr163   2.446       .  S
O155        C156   1.289       .  A
C156        C228   1.447       .  S
Zr157       O444   2.445       .  S
Zr157       O158   2.430       .  S
Zr157       O159   2.438       .  S
Zr157       O165   2.380       .  S
Zr157       O167   2.369       .  S
Zr157       O456   2.379       .  S
Zr157       O459   2.361       .  S
O158        H178   0.990       .  S
O158        H183   0.990       .  S
O159        H179   0.990       .  S
Zr160       O438   2.444       .  S
Zr160       O161   2.431       .  S
Zr160       O452   2.436       .  S
Zr160       O165   2.376       .  S
Zr160       O170   2.372       .  S
Zr160       O456   2.377       .  S
Zr160       O458   2.362       .  S
O161        H467   0.990       .  S
O162       Zr450   2.437   1_554  S
O162        H466   0.990   1_554  S
O162        H476   0.990       .  S
Zr163      O1286   2.444   1_455  S
Zr163      O1292   2.437   1_455  S
Zr163       O166   2.392       .  S
Zr163       O168   2.389       .  S
Zr163       O169   2.389       .  S
Zr163      O1303   2.395   1_455  S
Zr164      O1289   2.450   1_455  S
Zr164      O1295   2.441   1_455  S
Zr164       O165   2.398       .  S
Zr164       O167   2.391       .  S
Zr164       O170   2.382       .  S
Zr164      O1304   2.394   1_455  S
O165        H173   0.966       .  S
O166       Zr447   2.377   1_554  S
O166       Zr450   2.378   1_554  S
O167      Zr1587   2.367   1_455  S
O168      Zr1300   2.365   1_454  S
O168       Zr450   2.363   1_554  S
O168        H172   0.965       .  S
O169      Zr1297   2.370   1_454  S
O169       Zr447   2.363   1_554  S
O169        H174   0.965       .  S
O170      Zr1590   2.368   1_455  S
H175        O432   0.990   1_556  S
H176        O452   0.990       .  S
H177        O451   0.990   1_554  S
H180        O429   0.990   1_554  S
H182        O431   0.990       .  S
H184        O429   0.990   1_554  S
H186        O452   0.990       .  S
C187        H188   1.113       .  S
C187        C193   1.535       .  S
C187        C192   1.530       .  S
C187        C191   1.532       .  S
C189        H190   1.109       .  S
C189        C195   1.540       .  S
C189        C194   1.547       .  S
C189        C196   1.536       .  S
C191        C194   1.383       .  D
C191        C288   1.471       .  S
C192        C195   1.367       .  D
C192        C233   1.451       .  S
C193        C196   1.367       .  D
C193        C248   1.455       .  S
C194        C284   1.488       .  S
C195        C232   1.455       .  S
C196        C250   1.450       .  S
C197        H198   1.113       .  S
C197        C203   1.540       .  S
C197        C202   1.531       .  S
C197        C201   1.532       .  S
C199        H200   1.109       .  S
C199        C205   1.540       .  S
C199        C204   1.548       .  S
C199        C206   1.532       .  S
C201        C204   1.380       .  D
C201        C279   1.479       .  S
C202        C205   1.367       .  D
C202        C246   1.455       .  S
C203        C206   1.369       .  D
C203        C235   1.446       .  S
C204        C275   1.477       .  S
C205        C243   1.453       .  S
C206        C237   1.461       .  S
C207        H208   1.109       .  S
C207        C213   1.532       .  S
C207        C212   1.540       .  S
C207        C211   1.547       .  S
C209        H210   1.113       .  S
C209        C215   1.530       .  S
C209        C214   1.535       .  S
C209        C216   1.538       .  S
C211        C214   1.383       .  D
C211        C264   1.488       .  S
C212        C215   1.367       .  D
C212        C258   1.444       .  S
C213        C216   1.367       .  D
C213        C227   1.457       .  S
C214        C260   1.473       .  S
C215        C256   1.460       .  S
C216        C229   1.447       .  S
C217        H218   1.112       .  S
C217        C223   1.537       .  S
C217        C222   1.542       .  S
C217        C221   1.538       .  S
C219        H220   1.111       .  S
C219        C225   1.536       .  S
C219        C224   1.535       .  S
C219        C226   1.541       .  S
C221        C224   1.361       .  D
C221        C268   1.469       .  S
C222        C225   1.373       .  D
C222        C253   1.457       .  S
C223        C226   1.369       .  D
C223        C239   1.451       .  S
C224        C272   1.463       .  S
C225        C252   1.451       .  S
C226        C242   1.462       .  S
C227        C228   1.213       .  T
C229        C230   1.206       .  T
C231        C232   1.212       .  T
C233        C234   1.209       .  T
C235        C236   1.206       .  T
C237        C238   1.214       .  T
C239        C240   1.209       .  T
C241        C242   1.216       .  T
C243        C244   1.210       .  T
C245        C246   1.211       .  T
C247        C248   1.211       .  T
C249        C250   1.208       .  T
C251        C252   1.209       .  T
C253        C254   1.212       .  T
C255        C256   1.214       .  T
C257        C258   1.205       .  T
C259        C260   1.337       .  D
C259        H261   1.085       .  S
C260        H262   1.088       .  S
C263        C264   1.348       .  D
C263        H265   1.084       .  S
C264        H266   1.085       .  S
C267        C268   1.329       .  D
C267        H269   1.088       .  S
C268        H270   1.087       .  S
C271        C272   1.332       .  D
C271        H273   1.086       .  S
C272        H274   1.087       .  S
C275        C276   1.345       .  D
C275        H277   1.086       .  S
C276        H278   1.085       .  S
C279        C280   1.341       .  D
C279        H281   1.087       .  S
C280        H282   1.085       .  S
C283        C284   1.348       .  D
C283        H285   1.084       .  S
C284        H286   1.086       .  S
C287        C288   1.332       .  D
C287        H289   1.084       .  S
C288        H290   1.088       .  S
O291       Zr303   2.449       .  S
O291        C293   1.291       .  A
O292       Zr329   2.391       .  S
O292        C293   1.277       .  A
C293        C577   1.463       .  S
O294        C296   1.291       .  A
O295       Zr330   2.388       .  S
O295        C296   1.281       .  A
C296        C566   1.462       .  S
O297       Zr306   2.445       .  S
O297        C299   1.291       .  A
O298       Zr329   2.411       .  S
O298        C299   1.281       .  A
C299        C570   1.475       .  S
O300        C302   1.288       .  A
O301       Zr330   2.425       .  S
O301        C302   1.286       .  A
C302        C573   1.471       .  S
Zr303       O304   2.429       .  S
Zr303       O309   2.356       .  S
Zr303       O335   2.375       .  S
O304        H347   0.990       .  S
Zr306       O307   2.435       .  S
Zr306       O309   2.353       .  S
Zr306       O334   2.372       .  S
O307        H351   0.989       .  S
O309       Zr329   2.373       .  S
O310       Zr330   2.394       .  S
O310        H337   0.968       .  S
O311       Zr323   2.461       .  S
O311        C313   1.293       .  A
O312       Zr330   2.401       .  S
O312        C313   1.280       .  A
C313        C549   1.472       .  S
O314        C316   1.278       .  A
O315       Zr329   2.401       .  S
O315        C316   1.283       .  A
C316        C561   1.449       .  S
O317       Zr326   2.405       .  S
O317        C319   1.275       .  A
O318       Zr330   2.437       .  S
O318        C319   1.286       .  A
C319        C557   1.450       .  S
O320        C322   1.289       .  A
O321       Zr329   2.411       .  S
O321        C322   1.283       .  A
C322        C553   1.467       .  S
Zr323       O325   2.431       .  S
Zr323       O331   2.375       .  S
Zr323       O333   2.355       .  S
O325        H345   0.990       .  S
Zr326       O327   2.435       .  S
Zr326       O331   2.358       .  S
Zr326       O336   2.361       .  S
Zr329       O332   2.380       .  S
Zr329       O334   2.377       .  S
Zr329       O335   2.388       .  S
Zr330       O331   2.385       .  S
Zr330       O333   2.377       .  S
Zr330       O336   2.372       .  S
O331        H339   0.965       .  S
O334        H338   0.965       .  S
O335        H340   0.966       .  S
O353       Zr365   2.447       .  S
O353        C355   1.287       .  A
O354       Zr391   2.433       .  S
O354        C355   1.287       .  A
C355        C547   1.436       .  S
O356        C358   1.287       .  A
O357       Zr392   2.445       .  S
O357        C358   1.290       .  A
C358        C544   1.444       .  S
O359       Zr368   2.446       .  S
O359        C361   1.287       .  A
O360       Zr391   2.442       .  S
O360        C361   1.289       .  A
C361        C541   1.443       .  S
O362        C364   1.287       .  A
O363       Zr392   2.451       .  S
O363        C364   1.291       .  A
C364        C545   1.449       .  S
Zr365       O366   2.429       .  S
Zr365       O371   2.377       .  S
Zr365       O397   2.371       .  S
O366        H409   0.990       .  S
Zr368       O369   2.431       .  S
Zr368       O371   2.372       .  S
Zr368       O396   2.360       .  S
O369        H413   0.990       .  S
O371       Zr391   2.395       .  S
O372       Zr392   2.398       .  S
O372        H399   0.966       .  S
O373       Zr385   2.439       .  S
O373        C375   1.286       .  A
O374       Zr972   2.437   1_545  S
O374        C375   1.288       .  A
C375        C539   1.438       .  S
O376        C378   1.288       .  A
O377       Zr971   2.441   1_545  S
O377        C378   1.288       .  A
C378        C535   1.444       .  S
O379       Zr388   2.440       .  S
O379        C381   1.286       .  A
O380       Zr972   2.443   1_545  S
O380        C381   1.289       .  A
C381        C534   1.441       .  S
O382        C384   1.286       .  A
O383       Zr971   2.440   1_545  S
O383        C384   1.288       .  A
C384        C537   1.441       .  S
Zr385       O393   2.376       .  S
Zr385       O687   2.361   1_546  S
Zr385       O975   2.368   1_545  S
Zr388       O389   2.433       .  S
Zr388       O393   2.372       .  S
Zr388       O978   2.376   1_545  S
Zr388       O686   2.366   1_546  S
Zr391       O957   2.449       .  S
Zr391       O963   2.436       .  S
Zr391       O974   2.397       .  S
Zr391       O396   2.381       .  S
Zr391       O397   2.392       .  S
Zr392       O954   2.448       .  S
Zr392       O960   2.442       .  S
Zr392       O973   2.401       .  S
Zr392       O395   2.379       .  S
Zr392       O398   2.387       .  S
O393       Zr972   2.397   1_545  S
O393        H401   0.965       .  S
O394       Zr971   2.393   1_545  S
O395       Zr965   2.363   1_556  S
O396       Zr678   2.362       .  S
O396        H400   0.965       .  S
O397       Zr675   2.354       .  S
O397        H402   0.965       .  S
O398       Zr968   2.367   1_556  S
O415       Zr427   2.452       .  S
O415        C417   1.288       .  A
O416      Zr1613   2.439       .  S
O416        C417   1.288       .  A
C417        C531   1.444       .  S
O418        C420   1.286       .  A
O419      Zr1614   2.449       .  S
O419        C420   1.290       .  A
C420        C528   1.449       .  S
O421       Zr430   2.438       .  S
O421        C423   1.286       .  A
O422      Zr1613   2.438       .  S
O422        C423   1.288       .  A
C423        C526   1.437       .  S
O424        C426   1.286       .  A
O425      Zr1614   2.446       .  S
O425        C426   1.290       .  A
C426        C530   1.444       .  S
Zr427       O428   2.429       .  S
Zr427       O433   2.378       .  S
Zr427      O1327   2.366       .  S
Zr427      O1619   2.363       .  S
O428        H471   0.990       .  S
Zr430       O431   2.431       .  S
Zr430       O433   2.386       .  S
Zr430      O1618   2.365       .  S
Zr430      O1330   2.363       .  S
O431        H475   0.990       .  S
O433      Zr1613   2.395       .  S
O434      Zr1614   2.393       .  S
O434        H461   0.966       .  S
O435       Zr447   2.437       .  S
O435        C437   1.286       .  A
O436       Zr454   2.436       .  S
O436        C437   1.288       .  A
C437        C520   1.437       .  S
O438        C440   1.287       .  A
O439       Zr453   2.443       .  S
O439        C440   1.288       .  A
C440        C524   1.443       .  S
O441       Zr450   2.440       .  S
O441        C443   1.286       .  A
O442       Zr454   2.444       .  S
O442        C443   1.289       .  A
C443        C521   1.442       .  S
O444        C446   1.286       .  A
O445       Zr453   2.445       .  S
O445        C446   1.289       .  A
C446        C518   1.445       .  S
Zr447       O448   2.430       .  S
Zr447       O449   2.435       .  S
Zr447       O455   2.380       .  S
Zr447       O457   2.365       .  S
O448        H468   0.990       .  S
O448        H473   0.990   1_556  S
O449        H469   0.990       .  S
Zr450       O451   2.432       .  S
Zr450       O455   2.375       .  S
Zr450       O460   2.373       .  S
Zr453      O1576   2.436   1_455  S
Zr453      O1582   2.437   1_455  S
Zr453      O1593   2.397   1_455  S
Zr453       O456   2.391       .  S
Zr453       O458   2.386       .  S
Zr453       O459   2.390       .  S
Zr454      O1579   2.448   1_455  S
Zr454      O1585   2.439   1_455  S
Zr454      O1594   2.393   1_455  S
Zr454       O455   2.397       .  S
Zr454       O457   2.384       .  S
Zr454       O460   2.385       .  S
O455        H463   0.966       .  S
O457      Zr1297   2.363   1_455  S
O458      Zr1590   2.367   1_455  S
O458        H462   0.965       .  S
O459      Zr1587   2.369   1_455  S
O459        H464   0.964   1_455  S
O460      Zr1300   2.371   1_455  S
C477        H478   1.113       .  S
C477        C483   1.536       .  S
C477        C482   1.530       .  S
C477        C481   1.530       .  S
C479        H480   1.110       .  S
C479        C485   1.540       .  S
C479        C484   1.548       .  S
C479        C486   1.534       .  S
C481        C484   1.381       .  D
C481        C578   1.468       .  S
C482        C485   1.367       .  D
C482        C523   1.453       .  S
C483        C486   1.367       .  D
C483        C538   1.452       .  S
C484        C574   1.488       .  S
C485        C522   1.452       .  S
C486        C540   1.450       .  S
C487        H488   1.113       .  S
C487        C493   1.540       .  S
C487        C492   1.531       .  S
C487        C491   1.532       .  S
C489        H490   1.110       .  S
C489        C495   1.539       .  S
C489        C494   1.545       .  S
C489        C496   1.533       .  S
C491        C494   1.380       .  D
C491        C569   1.475       .  S
C492        C495   1.367       .  D
C492        C536   1.455       .  S
C493        C496   1.369       .  D
C493        C525   1.448       .  S
C494        C565   1.475       .  S
C495        C533   1.453       .  S
C496        C527   1.460       .  S
C497        H498   1.107       .  S
C497        C503   1.536       .  S
C497        C502   1.535       .  S
C497        C501   1.547       .  S
C499        H500   1.113       .  S
C499        C505   1.537       .  S
C499        C504   1.539       .  S
C499        C506   1.533       .  S
C501        C504   1.385       .  D
C501        C554   1.492       .  S
C502        C505   1.365       .  D
C502        C548   1.447       .  S
C503        C506   1.368       .  D
C503        C517   1.456       .  S
C504        C550   1.476       .  S
C505        C546   1.460       .  S
C506        C519   1.448       .  S
C507        H508   1.112       .  S
C507        C513   1.535       .  S
C507        C512   1.541       .  S
C507        C511   1.539       .  S
C509        H510   1.110       .  S
C509        C515   1.534       .  S
C509        C514   1.533       .  S
C509        C516   1.540       .  S
C511        C514   1.362       .  D
C511        C558   1.468       .  S
C512        C515   1.372       .  D
C512        C543   1.455       .  S
C513        C516   1.369       .  D
C513        C529   1.455       .  S
C514        C562   1.463       .  S
C515        C542   1.454       .  S
C516        C532   1.454       .  S
C517        C518   1.211       .  T
C519        C520   1.207       .  T
C521        C522   1.210       .  T
C523        C524   1.210       .  T
C525        C526   1.207       .  T
C527        C528   1.214       .  T
C529        C530   1.211       .  T
C531        C532   1.211       .  T
C533        C534   1.210       .  T
C535        C536   1.211       .  T
C537        C538   1.209       .  T
C539        C540   1.208       .  T
C541        C542   1.211       .  T
C543        C544   1.211       .  T
C545        C546   1.214       .  T
C547        C548   1.207       .  T
C549        C550   1.336       .  D
C549        H551   1.084       .  S
C550        H552   1.087       .  S
C553        C554   1.348       .  D
C553        H555   1.082       .  S
C554        H556   1.085       .  S
C557        C558   1.329       .  D
C557        H559   1.088       .  S
C558        H560   1.087       .  S
C561        C562   1.333       .  D
C561        H563   1.085       .  S
C562        H564   1.087       .  S
C565        C566   1.346       .  D
C565        H567   1.086       .  S
C566        H568   1.086       .  S
C569        C570   1.339       .  D
C569        H571   1.087       .  S
C570        H572   1.085       .  S
C573        C574   1.347       .  D
C573        H575   1.085       .  S
C574        H576   1.086       .  S
C577        C578   1.332       .  D
C577        H579   1.084       .  S
C578        H580   1.088       .  S
O581       Zr593   2.418   1_554  S
O581        C583   1.282       .  A
O582       Zr619   2.401       .  S
O582        C583   1.283       .  A
C583        C867   1.459       .  S
O584       Zr886   2.421       .  S
O584        C586   1.280       .  A
O585       Zr620   2.441       .  S
O585        C586   1.288       .  A
C586        C856   1.455       .  S
O587       Zr596   2.421       .  S
O587        C589   1.285       .  A
O588       Zr619   2.405       .  S
O588        C589   1.281       .  A
C589        C860   1.464       .  S
O590       Zr883   2.393       .  S
O590        C592   1.278       .  A
O591       Zr620   2.435       .  S
O591        C592   1.289       .  A
C592        C863   1.451       .  S
Zr593       O880   2.412       .  S
Zr593       O594   2.424       .  S
Zr593       O885   2.436       .  S
Zr593       O599   2.360   1_556  S
Zr593       O890   2.357       .  S
Zr593       O913   2.363       .  S
Zr593       O625   2.368   1_556  S
O594        H637   0.989   1_556  S
O595       Zr883   2.437       .  S
O595        H926   0.990       .  S
O595        H930   0.989       .  S
Zr596       O874   2.420   1_554  S
Zr596       O597   2.434       .  S
Zr596       O888   2.430       .  S
Zr596       O890   2.372   1_554  S
Zr596       O599   2.369       .  S
Zr596       O624   2.348       .  S
Zr596       O916   2.365   1_554  S
O597        H928   0.989   1_554  S
O597        H641   0.989       .  S
O598       Zr886   2.429       .  S
O598        H921   0.990       .  S
O599       Zr619   2.371       .  S
O600       Zr883   2.350       .  S
O600       Zr886   2.366       .  S
O600       Zr620   2.383       .  S
O600        H627   0.964       .  S
O601       Zr613   2.442       .  S
O601        C603   1.287       .  A
O602       Zr620   2.420       .  S
O602        C603   1.286       .  A
C603        C839   1.470       .  S
O604       Zr906   2.462       .  S
O604        C606   1.292       .  A
O605       Zr619   2.410       .  S
O605        C606   1.281       .  A
C606        C851   1.469       .  S
O607       Zr616   2.433       .  S
O607        C609   1.287       .  A
O608       Zr620   2.432       .  S
O608        C609   1.288       .  A
C609        C847   1.468       .  S
O610       Zr903   2.443   1_554  S
O610        C612   1.288       .  A
O611       Zr619   2.388       .  S
O611        C612   1.281       .  A
C612        C843   1.463       .  S
Zr613       O900   2.448       .  S
Zr613       O904   2.436       .  S
Zr613       O615   2.433       .  S
Zr613       O621   2.374       .  S
Zr613       O912   2.371       .  S
Zr613       O915   2.358       .  S
Zr613       O623   2.361       .  S
O614       Zr903   2.437       .  S
O614        H924   0.990       .  S
O614        H929   0.991       .  S
O615        H635   0.990       .  S
Zr616       O894   2.464       .  S
Zr616       O617   2.429       .  S
Zr616       O908   2.435       .  S
Zr616       O912   2.355       .  S
Zr616       O621   2.377       .  S
Zr616       O626   2.387       .  S
Zr616       O914   2.366       .  S
O617        H923   0.990       .  S
O618       Zr906   2.437       .  S
O618        H922   0.990       .  S
O618        H932   0.990       .  S
Zr619       O622   2.377       .  S
Zr619       O624   2.378       .  S
Zr619       O625   2.379       .  S
Zr620       O621   2.394       .  S
Zr620       O623   2.384       .  S
Zr620       O626   2.387       .  S
O621        H629   0.966       .  S
O622       Zr903   2.379   1_554  S
O622       Zr906   2.360       .  S
O623       Zr883   2.369       .  S
O624       Zr906   2.367       .  S
O624        H628   0.965       .  S
O625       Zr903   2.365   1_554  S
O625        H630   0.967       .  S
O626       Zr886   2.356       .  S
H631        O888   0.990       .  S
H632        O908   0.990       .  S
H633        O907   0.990       .  S
H634        O904   0.990       .  S
H636        O885   0.990       .  S
H638        O887   0.989       .  S
H639        O904   0.990       .  S
H640        O885   0.990       .  S
H642        O908   0.989       .  S
O643       Zr655   2.442   1_554  S
O643        C645   1.286       .  A
O644       Zr681   2.436       .  S
O644        C645   1.288       .  A
C645        C837   1.439       .  S
O646       Zr948   2.443       .  S
O646        C648   1.286       .  A
O647       Zr682   2.436       .  S
O647        C648   1.287       .  A
C648        C834   1.441       .  S
O649       Zr658   2.437   1_554  S
O649        C651   1.286       .  A
O650       Zr681   2.443       .  S
O650        C651   1.289       .  A
C651        C831   1.441       .  S
O652       Zr945   2.443       .  S
O652        C654   1.287       .  A
O653       Zr682   2.444       .  S
O653        C654   1.289       .  A
C654        C835   1.444       .  S
Zr655       O942   2.437       .  S
Zr655       O656   2.430   1_556  S
Zr655       O947   2.437       .  S
Zr655       O661   2.376   1_556  S
Zr655       O952   2.381       .  S
Zr655       O975   2.365       .  S
Zr655       O687   2.363   1_556  S
O656        H699   0.990       .  S
O657       Zr945   2.437       .  S
O657        H988   0.990       .  S
O657        H992   0.990       .  S
Zr658       O936   2.445       .  S
Zr658       O659   2.430       .  S
Zr658       O950   2.435   1_556  S
Zr658       O952   2.375       .  S
Zr658       O661   2.380   1_556  S
Zr658       O686   2.361   1_556  S
Zr658       O978   2.363       .  S
O659        H990   0.990       .  S
O659        H703   0.990       .  S
O660       Zr948   2.434       .  S
O660        H983   0.990       .  S
O661       Zr681   2.396       .  S
O662       Zr945   2.374       .  S
O662       Zr948   2.372       .  S
O662       Zr682   2.390       .  S
O662        H689   0.966       .  S
O663       Zr675   2.444       .  S
O663        C665   1.287       .  A
O664        C665   1.290       .  A
C665        C829   1.447       .  S
O666       Zr968   2.448       .  S
O666        C668   1.287       .  A
O667        C668   1.288       .  A
C668        C825   1.442       .  S
O669       Zr678   2.446       .  S
O669        C671   1.287       .  A
O670        C671   1.288       .  A
C671        C824   1.444       .  S
O672       Zr965   2.443       .  S
O672        C674   1.286       .  A
O673        C674   1.289       .  A
C674        C827   1.443       .  S
Zr675       O962   2.446       .  S
Zr675       O966   2.434       .  S
Zr675       O967   2.436       .  S
Zr675       O683   2.384       .  S
Zr675       O974   2.390       .  S
O676       Zr965   2.428   1_556  S
O676        H986   0.990       .  S
O676        H991   0.990   1_556  S
O677       Zr965   2.435       .  S
O677        H987   0.990   1_554  S
Zr678       O956   2.451       .  S
Zr678       O679   2.430       .  S
Zr678       O970   2.437       .  S
Zr678       O974   2.382       .  S
Zr678       O683   2.379       .  S
O679        H985   0.990       .  S
O680       Zr968   2.437       .  S
O680        H984   0.990   1_554  S
O680        H994   0.990   1_554  S
Zr681       O686   2.385       .  S
Zr681       O687   2.384       .  S
Zr682       O685   2.386       .  S
Zr682       O688   2.383       .  S
O683        H691   0.967       .  S
O684       Zr965   2.384       .  S
O684       Zr968   2.381       .  S
O685       Zr945   2.374       .  S
O686        H690   0.965       .  S
O687        H692   0.965       .  S
O688       Zr948   2.364       .  S
H693        O950   0.990   1_556  S
H694        O970   0.990       .  S
H695        O969   0.990       .  S
H696        O966   0.990       .  S
H697        O967   0.990       .  S
H698        O947   0.990   1_554  S
H700        O949   0.990       .  S
H701        O966   0.990       .  S
H702        O947   0.990   1_554  S
H704        O970   0.990       .  S
O705       Zr717   2.448   1_554  S
O705        C707   1.287       .  A
O706      Zr1903   2.440       .  S
O706        C707   1.288       .  A
C707        C821   1.441       .  S
O708      Zr1010   2.446       .  S
O708        C710   1.287       .  A
O709      Zr1904   2.446       .  S
O709        C710   1.290       .  A
C710        C818   1.445       .  S
O711       Zr720   2.444   1_554  S
O711        C713   1.288       .  A
O712      Zr1903   2.438       .  S
O712        C713   1.288       .  A
C713        C816   1.441       .  S
O714      Zr1007   2.437       .  S
O714        C716   1.286       .  A
O715      Zr1904   2.457       .  S
O715        C716   1.292       .  A
C716        C820   1.447       .  S
Zr717      O1004   2.446       .  S
Zr717       O718   2.432       .  S
Zr717      O1009   2.437       .  S
Zr717       O723   2.377   1_556  S
Zr717      O1014   2.375       .  S
Zr717      O2197   2.369       .  S
Zr717      O1909   2.369   1_556  S
O718        H761   0.990       .  S
O719      Zr1007   2.437       .  S
O719       H1050   0.990       .  S
O719       H1054   0.990       .  S
Zr720       O998   2.438       .  S
Zr720       O721   2.432       .  S
Zr720      O1012   2.433   1_556  S
Zr720      O1014   2.377       .  S
Zr720       O723   2.379   1_556  S
Zr720      O1908   2.365   1_556  S
Zr720      O2200   2.367       .  S
O721       H1052   0.990       .  S
O721        H765   0.990       .  S
O722      Zr1010   2.436       .  S
O722       H1045   0.990       .  S
O723      Zr1903   2.394       .  S
O724      Zr1007   2.376       .  S
O724      Zr1010   2.374       .  S
O724      Zr1904   2.394       .  S
O724        H751   0.967       .  S
O725       Zr737   2.438       .  S
O725        C727   1.285       .  A
O726       Zr744   2.447       .  S
O726        C727   1.290       .  A
C727        C810   1.442       .  S
O728      Zr1030   2.447   1_554  S
O728        C730   1.287       .  A
O729       Zr743   2.438       .  S
O729        C730   1.288       .  A
C730        C814   1.440       .  S
O731       Zr740   2.439       .  S
O731        C733   1.285       .  A
O732       Zr744   2.435       .  S
O732        C733   1.287       .  A
C733        C811   1.438       .  S
O734      Zr1027   2.448   1_554  S
O734        C736   1.288       .  A
O735       Zr743   2.440       .  S
O735        C736   1.288       .  A
C736        C808   1.444       .  S
Zr737      O1024   2.442       .  S
Zr737       O738   2.430       .  S
Zr737       O739   2.434       .  S
Zr737       O745   2.376       .  S
Zr737      O1036   2.379       .  S
Zr737      O1039   2.364       .  S
Zr737       O747   2.364       .  S
O738        H758   0.990       .  S
O738        H763   0.990       .  S
O739        H759   0.990       .  S
Zr740      O1018   2.444       .  S
Zr740       O741   2.435       .  S
Zr740      O1032   2.436       .  S
Zr740      O1036   2.379       .  S
Zr740       O745   2.374       .  S
Zr740       O750   2.368       .  S
Zr740      O1038   2.364       .  S
O741       H1047   0.990       .  S
O742      Zr1030   2.436   1_554  S
O742       H1046   0.990   1_554  S
O742       H1056   0.990   1_554  S
Zr743      O1866   2.443   1_455  S
Zr743      O1872   2.448   1_455  S
Zr743      O1883   2.392   1_455  S
Zr743       O746   2.393       .  S
Zr743       O748   2.387       .  S
Zr743       O749   2.390       .  S
Zr744      O1869   2.444   1_455  S
Zr744      O1875   2.442   1_455  S
Zr744      O1884   2.396   1_455  S
Zr744       O745   2.394       .  S
Zr744       O747   2.379       .  S
Zr744       O750   2.385       .  S
O745        H753   0.965       .  S
O746      Zr1027   2.374   1_554  S
O746      Zr1030   2.375   1_554  S
O747      Zr2167   2.365   1_455  S
O748      Zr1880   2.358   1_455  S
O748      Zr1030   2.366   1_554  S
O748        H752   0.965       .  S
O749      Zr1877   2.370   1_454  S
O749      Zr1027   2.366   1_554  S
O749        H754   0.965       .  S
O750      Zr2170   2.367   1_455  S
H755       O1012   0.990       .  S
H756       O1032   0.990       .  S
H757       O1031   0.990   1_554  S
H760       O1009   0.990   1_554  S
H762       O1011   0.989       .  S
H764       O1009   0.990   1_554  S
H766       O1032   0.990       .  S
C767        H768   1.110       .  S
C767        C773   1.540       .  S
C767        C772   1.536       .  S
C767        C771   1.535       .  S
C769        H770   1.112       .  S
C769        C775   1.534       .  S
C769        C774   1.542       .  S
C769        C776   1.536       .  S
C771        C774   1.364       .  D
C771        C868   1.469       .  S
C772        C775   1.367       .  D
C772        C813   1.452       .  S
C773        C776   1.371       .  D
C773        C828   1.453       .  S
C774        C864   1.470       .  S
C775        C812   1.449       .  S
C776        C830   1.457       .  S
C777        H778   1.113       .  S
C777        C783   1.535       .  S
C777        C782   1.539       .  S
C777        C781   1.529       .  S
C779        H780   1.112       .  S
C779        C785   1.535       .  S
C779        C784   1.545       .  S
C779        C786   1.540       .  S
C781        C784   1.369       .  D
C781        C859   1.467       .  S
C782        C785   1.368       .  D
C782        C826   1.452       .  S
C783        C786   1.372       .  D
C783        C815   1.450       .  S
C784        C855   1.474       .  S
C785        C823   1.454       .  S
C786        C817   1.455       .  S
C787        H788   1.109       .  S
C787        C793   1.534       .  S
C787        C792   1.535       .  S
C787        C791   1.539       .  S
C789        H790   1.110       .  S
C789        C795   1.534       .  S
C789        C794   1.545       .  S
C789        C796   1.539       .  S
C791        C794   1.377       .  D
C791        C844   1.476       .  S
C792        C795   1.364       .  D
C792        C838   1.450       .  S
C793        C796   1.371       .  D
C793        C807   1.454       .  S
C794        C840   1.485       .  S
C795        C836   1.455       .  S
C796        C809   1.452       .  S
C797        H798   1.110       .  S
C797        C803   1.540       .  S
C797        C802   1.536       .  S
C797        C801   1.549       .  S
C799        H800   1.113       .  S
C799        C805   1.537       .  S
C799        C804   1.531       .  S
C799        C806   1.533       .  S
C801        C804   1.377       .  D
C801        C848   1.484       .  S
C802        C805   1.370       .  D
C802        C833   1.452       .  S
C803        C806   1.366       .  D
C803        C819   1.457       .  S
C804        C852   1.471       .  S
C805        C832   1.452       .  S
C806        C822   1.451       .  S
C807        C808   1.211       .  T
C809        C810   1.210       .  T
C811        C812   1.207       .  T
C813        C814   1.209       .  T
C815        C816   1.209       .  T
C817        C818   1.211       .  T
C819        C820   1.213       .  T
C821        C822   1.209       .  T
C823        C824   1.211       .  T
C825        C826   1.210       .  T
C827        C828   1.211       .  T
C829        C830   1.213       .  T
C831        C832   1.209       .  T
C833        C834   1.209       .  T
C835        C836   1.211       .  T
C837        C838   1.208       .  T
C839        C840   1.342       .  D
C839        H841   1.086       .  S
C840        H842   1.085       .  S
C843        C844   1.346       .  D
C843        H845   1.084       .  S
C844        H846   1.085       .  S
C847        C848   1.345       .  D
C847        H849   1.086       .  S
C848        H850   1.086       .  S
C851        C852   1.337       .  D
C851        H853   1.086       .  S
C852        H854   1.088       .  S
C855        C856   1.330       .  D
C855        H857   1.086       .  S
C856        H858   1.088       .  S
C859        C860   1.340       .  D
C859        H861   1.087       .  S
C860        H862   1.085       .  S
C863        C864   1.329       .  D
C863        H865   1.088       .  S
C864        H866   1.086       .  S
C867        C868   1.337       .  D
C867        H869   1.086       .  S
C868        H870   1.086       .  S
O871       Zr883   2.416       .  S
O871        C873   1.281       .  A
O872       Zr909   2.405       .  S
O872        C873   1.283       .  A
C873       C1157   1.451       .  S
O874        C876   1.281       .  A
O875       Zr910   2.419       .  S
O875        C876   1.286       .  A
C876       C1146   1.462       .  S
O877       Zr886   2.408       .  S
O877        C879   1.279       .  A
O878       Zr909   2.404       .  S
O878        C879   1.283       .  A
C879       C1150   1.446       .  S
O880        C882   1.284       .  A
O881       Zr910   2.419       .  S
O881        C882   1.283       .  A
C882       C1153   1.465       .  S
Zr883       O884   2.429       .  S
Zr883       O889   2.351       .  S
Zr883       O915   2.356       .  S
O884        H927   0.990       .  S
Zr886       O887   2.440       .  S
Zr886       O889   2.373       .  S
Zr886       O914   2.363       .  S
O887        H931   0.989       .  S
O889       Zr909   2.373       .  S
O890       Zr910   2.380       .  S
O890        H917   0.964       .  S
O891       Zr903   2.453       .  S
O891        C893   1.291       .  A
O892       Zr910   2.414       .  S
O892        C893   1.282       .  A
C893       C1129   1.476       .  S
O894        C896   1.293       .  A
O895       Zr909   2.408       .  S
O895        C896   1.282       .  A
C896       C1141   1.478       .  S
O897       Zr906   2.446   1_556  S
O897        C899   1.289       .  A
O898       Zr910   2.392       .  S
O898        C899   1.281       .  A
C899       C1137   1.460       .  S
O900        C902   1.292       .  A
O901       Zr909   2.406       .  S
O901        C902   1.281       .  A
C902       C1133   1.472       .  S
Zr903       O905   2.431       .  S
Zr903       O911   2.371       .  S
Zr903       O913   2.356       .  S
O905        H925   0.990       .  S
Zr906       O907   2.427       .  S
Zr906       O911   2.370   1_554  S
Zr906       O916   2.380   1_554  S
Zr909       O912   2.371       .  S
Zr909       O914   2.380       .  S
Zr909       O915   2.374       .  S
Zr910       O911   2.390       .  S
Zr910       O913   2.377       .  S
Zr910       O916   2.384       .  S
O911        H919   0.966       .  S
O914        H918   0.967       .  S
O915        H920   0.965       .  S
O933       Zr945   2.450       .  S
O933        C935   1.287       .  A
O934       Zr971   2.445       .  S
O934        C935   1.289       .  A
C935       C1127   1.445       .  S
O936        C938   1.286       .  A
O937       Zr972   2.447       .  S
O937        C938   1.289       .  A
C938       C1124   1.447       .  S
O939       Zr948   2.441       .  S
O939        C941   1.287       .  A
O940       Zr971   2.443       .  S
O940        C941   1.289       .  A
C941       C1121   1.440       .  S
O942        C944   1.286       .  A
O943       Zr972   2.451       .  S
O943        C944   1.291       .  A
C944       C1125   1.445       .  S
Zr945       O946   2.432       .  S
Zr945       O951   2.377       .  S
Zr945       O977   2.368       .  S
O946        H989   0.990       .  S
Zr948       O949   2.432       .  S
Zr948       O951   2.382       .  S
Zr948       O976   2.364       .  S
O949        H993   0.990       .  S
O951       Zr971   2.395       .  S
O952       Zr972   2.393       .  S
O952        H979   0.966       .  S
O953       Zr965   2.437   1_556  S
O953        C955   1.285       .  A
O954        C955   1.290       .  A
C955       C1119   1.444       .  S
O956        C958   1.287       .  A
O957        C958   1.290       .  A
C958       C1115   1.448       .  S
O959       Zr968   2.440   1_556  S
O959        C961   1.285       .  A
O960        C961   1.289       .  A
C961       C1114   1.442       .  S
O962        C964   1.286       .  A
O963        C964   1.287       .  A
C964       C1117   1.440       .  S
Zr965       O973   2.382   1_554  S
Zr968       O969   2.426   1_554  S
Zr968       O973   2.381   1_554  S
Zr971       O976   2.385       .  S
Zr971       O977   2.389       .  S
Zr972       O975   2.384       .  S
Zr972       O978   2.384       .  S
O973        H981   0.965       .  S
O976        H980   0.965       .  S
O977        H982   0.965       .  S
O995      Zr1007   2.447       .  S
O995        C997   1.287       .  A
O996      Zr2193   2.437       .  S
O996        C997   1.287       .  A
C997       C1111   1.440       .  S
O998       C1000   1.285       .  A
O999      Zr2194   2.445       .  S
O999       C1000   1.289       .  A
C1000      C1108   1.443       .  S
O1001     Zr1010   2.438       .  S
O1001      C1003   1.286       .  A
O1002     Zr2193   2.441       .  S
O1002      C1003   1.288       .  A
C1003      C1106   1.439       .  S
O1004      C1006   1.287       .  A
O1005     Zr2194   2.445       .  S
O1005      C1006   1.289       .  A
C1006      C1110   1.446       .  S
Zr1007     O1008   2.429       .  S
Zr1007     O1013   2.371       .  S
Zr1007     O1907   2.371       .  S
Zr1007     O2199   2.367       .  S
O1008      H1051   0.990       .  S
Zr1010     O1011   2.428       .  S
Zr1010     O1013   2.381       .  S
Zr1010     O2198   2.362       .  S
Zr1010     O1910   2.365       .  S
O1011      H1055   0.990       .  S
O1013     Zr2193   2.390       .  S
O1014     Zr2194   2.391       .  S
O1014      H1041   0.965       .  S
O1015     Zr1027   2.442       .  S
O1015      C1017   1.287       .  A
O1016     Zr1034   2.448       .  S
O1016      C1017   1.290       .  A
C1017      C1100   1.445       .  S
O1018      C1020   1.287       .  A
O1019     Zr1033   2.452       .  S
O1019      C1020   1.291       .  A
C1020      C1104   1.447       .  S
O1021     Zr1030   2.444       .  S
O1021      C1023   1.287       .  A
O1022     Zr1034   2.442       .  S
O1022      C1023   1.289       .  A
C1023      C1101   1.442       .  S
O1024      C1026   1.287       .  A
O1025     Zr1033   2.446       .  S
O1025      C1026   1.290       .  A
C1026      C1098   1.443       .  S
Zr1027     O1028   2.432       .  S
Zr1027     O1029   2.434       .  S
Zr1027     O1035   2.373       .  S
Zr1027     O1037   2.373   1_455  S
O1028      H1048   0.990   1_556  S
O1028      H1053   0.990   1_556  S
O1029      H1049   0.990       .  S
Zr1030     O1031   2.435       .  S
Zr1030     O1035   2.376       .  S
Zr1030     O1040   2.375       .  S
Zr1033     O2156   2.446   1_455  S
Zr1033     O2162   2.440   1_455  S
Zr1033     O2173   2.396   1_455  S
Zr1033     O1036   2.393       .  S
Zr1033     O1038   2.386       .  S
Zr1033     O1039   2.388       .  S
Zr1034     O2159   2.441   1_455  S
Zr1034     O2165   2.445   1_455  S
Zr1034     O2174   2.393   1_455  S
Zr1034     O1035   2.397       .  S
Zr1034     O1037   2.385   1_455  S
Zr1034     O1040   2.388       .  S
O1035      H1043   0.966       .  S
O1037     Zr1877   2.370       .  S
O1038     Zr2170   2.364   1_455  S
O1038      H1042   0.965       .  S
O1039     Zr2167   2.365   1_455  S
O1039      H1044   0.965       .  S
O1040     Zr1880   2.369   1_456  S
C1057      H1058   1.112       .  S
C1057      C1063   1.535       .  S
C1057      C1062   1.538       .  S
C1057      C1061   1.539       .  S
C1059      H1060   1.113       .  S
C1059      C1065   1.535       .  S
C1059      C1064   1.532       .  S
C1059      C1066   1.540       .  S
C1061      C1064   1.371       .  D
C1061      C1158   1.463       .  S
C1062      C1065   1.369       .  D
C1062      C1103   1.458       .  S
C1063      C1066   1.371       .  D
C1063      C1118   1.451       .  S
C1064      C1154   1.472       .  S
C1065      C1102   1.452       .  S
C1066      C1120   1.455       .  S
C1067      H1068   1.110       .  S
C1067      C1073   1.536       .  S
C1067      C1072   1.531       .  S
C1067      C1071   1.538       .  S
C1069      H1070   1.111       .  S
C1069      C1075   1.545       .  S
C1069      C1074   1.539       .  S
C1069      C1076   1.536       .  S
C1071      C1074   1.366       .  D
C1071      C1149   1.466       .  S
C1072      C1075   1.369       .  D
C1072      C1116   1.459       .  S
C1073      C1076   1.371       .  D
C1073      C1105   1.450       .  S
C1074      C1145   1.474       .  S
C1075      C1113   1.452       .  S
C1076      C1107   1.454       .  S
C1077      H1078   1.113       .  S
C1077      C1083   1.541       .  S
C1077      C1082   1.534       .  S
C1077      C1081   1.535       .  S
C1079      H1080   1.113       .  S
C1079      C1085   1.541       .  S
C1079      C1084   1.539       .  S
C1079      C1086   1.535       .  S
C1081      C1084   1.385       .  D
C1081      C1134   1.479       .  S
C1082      C1085   1.366       .  D
C1082      C1128   1.456       .  S
C1083      C1086   1.371       .  D
C1083      C1097   1.454       .  S
C1084      C1130   1.474       .  S
C1085      C1126   1.456       .  S
C1086      C1099   1.456       .  S
C1087      H1088   1.110       .  S
C1087      C1093   1.533       .  S
C1087      C1092   1.531       .  S
C1087      C1091   1.548       .  S
C1089      H1090   1.113       .  S
C1089      C1095   1.541       .  S
C1089      C1094   1.534       .  S
C1089      C1096   1.536       .  S
C1091      C1094   1.386       .  D
C1091      C1138   1.476       .  S
C1092      C1095   1.368       .  D
C1092      C1123   1.458       .  S
C1093      C1096   1.368       .  D
C1093      C1109   1.457       .  S
C1094      C1142   1.488       .  S
C1095      C1122   1.451       .  S
C1096      C1112   1.451       .  S
C1097      C1098   1.210       .  T
C1099      C1100   1.212       .  T
C1101      C1102   1.210       .  T
C1103      C1104   1.213       .  T
C1105      C1106   1.208       .  T
C1107      C1108   1.210       .  T
C1109      C1110   1.212       .  T
C1111      C1112   1.209       .  T
C1113      C1114   1.210       .  T
C1115      C1116   1.214       .  T
C1117      C1118   1.209       .  T
C1119      C1120   1.211       .  T
C1121      C1122   1.209       .  T
C1123      C1124   1.213       .  T
C1125      C1126   1.212       .  T
C1127      C1128   1.212       .  T
C1129      C1130   1.338       .  D
C1129      H1131   1.086       .  S
C1130      H1132   1.087       .  S
C1133      C1134   1.337       .  D
C1133      H1135   1.082       .  S
C1134      H1136   1.088       .  S
C1137      C1138   1.346       .  D
C1137      H1139   1.085       .  S
C1138      H1140   1.085       .  S
C1141      C1142   1.339       .  D
C1141      H1143   1.082       .  S
C1142      H1144   1.087       .  S
C1145      C1146   1.337       .  D
C1145      H1147   1.086       .  S
C1146      H1148   1.086       .  S
C1149      C1150   1.331       .  D
C1149      H1151   1.087       .  S
C1150      H1152   1.085       .  S
C1153      C1154   1.344       .  D
C1153      H1155   1.082       .  S
C1154      H1156   1.087       .  S
C1157      C1158   1.337       .  D
C1157      H1159   1.086       .  S
C1158      H1160   1.087       .  S
O1161     Zr1173   2.391       .  S
O1161      C1163   1.276       .  A
O1162     Zr1199   2.425       .  S
O1162      C1163   1.287       .  A
C1163      C1447   1.448       .  S
O1164     Zr1466   2.447       .  S
O1164      C1166   1.289       .  A
O1165     Zr1200   2.401       .  S
O1165      C1166   1.283       .  A
C1166      C1436   1.469       .  S
O1167     Zr1176   2.464       .  S
O1167      C1169   1.294       .  A
O1168     Zr1199   2.398       .  S
O1168      C1169   1.280       .  A
C1169      C1440   1.473       .  S
O1170     Zr1463   2.405       .  S
O1170      C1172   1.280       .  A
O1171     Zr1200   2.425       .  S
O1171      C1172   1.289       .  A
C1172      C1443   1.460       .  S
Zr1173     O1460   2.413   1_554  S
Zr1173     O1174   2.426       .  S
Zr1173     O1465   2.435       .  S
Zr1173     O1179   2.352       .  S
Zr1173     O1470   2.351   1_554  S
Zr1173     O1493   2.365   1_554  S
Zr1173     O1205   2.371       .  S
O1174      H1217   0.990       .  S
O1175     Zr1463   2.437       .  S
O1175      H1506   0.990       .  S
O1175      H1510   0.990       .  S
Zr1176     O1454   2.427   1_554  S
Zr1176     O1177   2.435       .  S
Zr1176     O1468   2.425       .  S
Zr1176     O1470   2.383   1_554  S
Zr1176     O1179   2.352       .  S
Zr1176     O1204   2.352       .  S
Zr1176     O1496   2.366   1_554  S
O1177      H1508   0.990       .  S
O1177      H1221   0.990       .  S
O1178     Zr1466   2.418       .  S
O1178      H1501   0.990       .  S
O1179     Zr1199   2.368       .  S
O1180     Zr1463   2.373       .  S
O1180     Zr1466   2.369       .  S
O1180     Zr1200   2.383       .  S
O1180      H1207   0.966       .  S
O1181     Zr1193   2.478       .  S
O1181      C1183   1.295       .  A
O1182     Zr1200   2.397       .  S
O1182      C1183   1.279       .  A
C1183      C1419   1.475       .  S
O1184     Zr1486   2.413   1_554  S
O1184      C1186   1.281       .  A
O1185     Zr1199   2.437       .  S
O1185      C1186   1.290       .  A
C1186      C1431   1.465       .  S
O1187     Zr1196   2.410       .  S
O1187      C1189   1.278       .  A
O1188     Zr1200   2.418       .  S
O1188      C1189   1.284       .  A
C1189      C1427   1.445       .  S
O1190     Zr1483   2.458   1_554  S
O1190      C1192   1.291       .  A
O1191     Zr1199   2.400       .  S
O1191      C1192   1.282       .  A
C1192      C1423   1.473       .  S
Zr1193     O1480   2.433       .  S
Zr1193     O1484   2.439       .  S
Zr1193     O1195   2.430       .  S
Zr1193     O1201   2.368       .  S
Zr1193     O1492   2.384       .  S
Zr1193     O1495   2.381       .  S
Zr1193     O1203   2.356       .  S
O1194     Zr1483   2.435       .  S
O1194      H1504   0.990       .  S
O1194      H1509   0.990       .  S
O1195      H1215   0.990       .  S
Zr1196     O1474   2.424       .  S
Zr1196     O1197   2.432       .  S
Zr1196     O1488   2.438       .  S
Zr1196     O1492   2.355       .  S
Zr1196     O1201   2.360       .  S
Zr1196     O1206   2.363       .  S
Zr1196     O1494   2.370       .  S
O1197      H1503   0.989       .  S
O1198     Zr1486   2.433       .  S
O1198      H1502   0.990       .  S
O1198      H1512   0.990       .  S
Zr1199     O1202   2.382       .  S
Zr1199     O1204   2.382       .  S
Zr1199     O1205   2.384       .  S
Zr1200     O1201   2.386       .  S
Zr1200     O1203   2.376       .  S
Zr1200     O1206   2.369       .  S
O1201      H1209   0.965       .  S
O1202     Zr1483   2.378   1_554  S
O1202     Zr1486   2.378   1_554  S
O1203     Zr1463   2.377       .  S
O1204     Zr1486   2.373   1_554  S
O1204      H1208   0.965       .  S
O1205     Zr1483   2.368   1_554  S
O1205      H1210   0.966       .  S
O1206     Zr1466   2.341       .  S
H1211      O1468   0.990   1_556  S
H1212      O1488   0.989       .  S
H1213      O1487   0.990       .  S
H1214      O1484   0.990       .  S
H1216      O1465   0.990       .  S
H1218      O1467   0.990       .  S
H1219      O1484   0.990       .  S
H1220      O1465   0.990       .  S
H1222      O1488   0.990       .  S
O1223     Zr1235   2.449   1_554  S
O1223      C1225   1.287       .  A
O1224     Zr1261   2.438       .  S
O1224      C1225   1.288       .  A
C1225      C1417   1.444       .  S
O1226     Zr1528   2.449       .  S
O1226      C1228   1.288       .  A
O1227     Zr1262   2.448       .  S
O1227      C1228   1.290       .  A
C1228      C1414   1.449       .  S
O1229     Zr1238   2.438   1_554  S
O1229      C1231   1.286       .  A
O1230     Zr1261   2.434       .  S
O1230      C1231   1.287       .  A
C1231      C1411   1.436       .  S
O1232     Zr1525   2.442       .  S
O1232      C1234   1.287       .  A
O1233     Zr1262   2.445       .  S
O1233      C1234   1.289       .  A
C1234      C1415   1.445       .  S
Zr1235     O1522   2.437       .  S
Zr1235     O1236   2.431       .  S
Zr1235     O1527   2.436   1_556  S
Zr1235     O1241   2.370   1_556  S
Zr1235     O1532   2.378       .  S
Zr1235     O1555   2.370       .  S
Zr1235     O1267   2.367   1_556  S
O1236      H1279   0.990   1_556  S
O1237     Zr1525   2.437       .  S
O1237      H1568   0.990       .  S
O1237      H1572   0.990       .  S
Zr1238     O1516   2.439       .  S
Zr1238     O1239   2.428   1_556  S
Zr1238     O1530   2.434       .  S
Zr1238     O1532   2.377       .  S
Zr1238     O1241   2.374   1_556  S
Zr1238     O1266   2.366   1_556  S
Zr1238     O1558   2.367       .  S
O1239      H1570   0.990       .  S
O1239      H1283   0.990       .  S
O1240     Zr1528   2.434       .  S
O1240      H1563   0.990       .  S
O1241     Zr1261   2.390       .  S
O1242     Zr1525   2.378       .  S
O1242     Zr1528   2.377       .  S
O1242     Zr1262   2.394       .  S
O1242      H1269   0.967       .  S
O1243     Zr1255   2.438       .  S
O1243      C1245   1.285       .  A
O1244     Zr1842   2.438   1_545  S
O1244      C1245   1.288       .  A
C1245      C1409   1.438       .  S
O1246     Zr1548   2.451   1_554  S
O1246      C1248   1.288       .  A
O1247     Zr1841   2.445   1_545  S
O1247      C1248   1.289       .  A
C1248      C1405   1.446       .  S
O1249     Zr1258   2.444       .  S
O1249      C1251   1.286       .  A
O1250     Zr1842   2.440   1_545  S
O1250      C1251   1.288       .  A
C1251      C1404   1.442       .  S
O1252     Zr1545   2.448   1_554  S
O1252      C1254   1.288       .  A
O1253     Zr1841   2.447   1_545  S
O1253      C1254   1.290       .  A
C1254      C1407   1.448       .  S
Zr1255     O1542   2.442       .  S
Zr1255     O1546   2.432       .  S
Zr1255     O1547   2.435       .  S
Zr1255     O1263   2.373       .  S
Zr1255     O1554   2.379       .  S
Zr1255     O2137   2.368   1_545  S
Zr1255     O1845   2.370   1_545  S
O1256     Zr1545   2.426       .  S
O1256      H1566   0.990       .  S
O1256      H1571   0.990       .  S
O1257     Zr1545   2.434   1_554  S
O1257      H1567   0.990   1_554  S
Zr1258     O1536   2.448       .  S
Zr1258     O1259   2.434       .  S
Zr1258     O1550   2.435       .  S
Zr1258     O1554   2.377       .  S
Zr1258     O1263   2.371       .  S
Zr1258     O1848   2.372   1_545  S
Zr1258     O2136   2.367   1_545  S
O1259      H1565   0.990       .  S
O1260     Zr1548   2.436   1_554  S
O1260      H1564   0.990   1_554  S
O1260      H1574   0.990   1_554  S
Zr1261     O1827   2.439       .  S
Zr1261     O1833   2.442       .  S
Zr1261     O1844   2.392       .  S
Zr1261     O1266   2.388       .  S
Zr1261     O1267   2.386       .  S
Zr1262     O1824   2.447       .  S
Zr1262     O1830   2.441       .  S
Zr1262     O1843   2.396       .  S
Zr1262     O1265   2.382       .  S
Zr1262     O1268   2.386       .  S
O1263     Zr1842   2.392   1_545  S
O1263      H1271   0.965       .  S
O1264     Zr1545   2.382   1_554  S
O1264     Zr1548   2.380   1_554  S
O1264     Zr1841   2.400   1_545  S
O1265     Zr1525   2.366       .  S
O1265     Zr1835   2.369       .  S
O1266     Zr2128   2.360   1_554  S
O1266      H1270   0.964       .  S
O1267     Zr2125   2.364   1_554  S
O1267      H1272   0.965       .  S
O1268     Zr1528   2.367       .  S
O1268     Zr1838   2.375       .  S
H1273      O1530   0.990   1_554  S
H1274      O1550   0.990       .  S
H1275      O1549   0.990       .  S
H1276      O1546   0.990       .  S
H1277      O1547   0.990       .  S
H1278      O1527   0.990       .  S
H1280      O1529   0.990       .  S
H1281      O1546   0.990       .  S
H1282      O1527   0.990       .  S
H1284      O1550   0.991       .  S
O1285     Zr1297   2.440   1_554  S
O1285      C1287   1.285       .  A
O1286      C1287   1.289       .  A
C1287      C1401   1.441       .  S
O1288     Zr1590   2.445       .  S
O1288      C1290   1.286       .  A
O1289      C1290   1.290       .  A
C1290      C1398   1.448       .  S
O1291     Zr1300   2.444   1_554  S
O1291      C1293   1.287       .  A
O1292      C1293   1.288       .  A
C1293      C1396   1.439       .  S
O1294     Zr1587   2.449       .  S
O1294      C1296   1.288       .  A
O1295      C1296   1.289       .  A
C1296      C1400   1.445       .  S
Zr1297     O1584   2.438       .  S
Zr1297     O1298   2.428       .  S
Zr1297     O1589   2.435       .  S
Zr1297     O1303   2.376   1_556  S
Zr1297     O1594   2.374       .  S
O1298      H1341   0.990   1_556  S
O1299     Zr1587   2.436       .  S
O1299      H1630   0.990       .  S
O1299      H1634   0.990       .  S
Zr1300     O1578   2.446       .  S
Zr1300     O1301   2.431       .  S
Zr1300     O1592   2.434   1_556  S
Zr1300     O1594   2.374       .  S
Zr1300     O1303   2.379   1_556  S
O1301      H1632   0.990       .  S
O1301      H1345   0.990   1_556  S
O1302     Zr1590   2.433       .  S
O1302      H1625   0.990       .  S
O1304     Zr1587   2.376       .  S
O1304     Zr1590   2.372       .  S
O1304      H1331   0.965       .  S
O1305     Zr1317   2.445       .  S
O1305      C1307   1.287       .  A
O1306     Zr1324   2.442       .  S
O1306      C1307   1.289       .  A
C1307      C1390   1.443       .  S
O1308     Zr1610   2.442       .  S
O1308      C1310   1.286       .  A
O1309     Zr1323   2.444       .  S
O1309      C1310   1.289       .  A
C1310      C1394   1.441       .  S
O1311     Zr1320   2.438       .  S
O1311      C1313   1.285       .  A
O1312     Zr1324   2.443       .  S
O1312      C1313   1.289       .  A
C1313      C1391   1.441       .  S
O1314     Zr1607   2.436   1_554  S
O1314      C1316   1.285       .  A
O1315     Zr1323   2.442       .  S
O1315      C1316   1.289       .  A
C1316      C1388   1.438       .  S
Zr1317     O1604   2.448       .  S
Zr1317     O1318   2.434       .  S
Zr1317     O1319   2.435       .  S
Zr1317     O1325   2.379       .  S
Zr1317     O1616   2.380       .  S
Zr1317     O1619   2.364       .  S
Zr1317     O1327   2.366       .  S
O1318      H1338   0.990       .  S
O1318      H1343   0.991       .  S
O1319      H1339   0.990       .  S
Zr1320     O1598   2.446       .  S
Zr1320     O1321   2.433       .  S
Zr1320     O1612   2.437       .  S
Zr1320     O1616   2.375       .  S
Zr1320     O1325   2.377       .  S
Zr1320     O1330   2.374       .  S
Zr1320     O1618   2.365       .  S
O1321      H1627   0.990       .  S
O1322     Zr1610   2.438       .  S
O1322      H1626   0.990   1_554  S
O1322      H1636   0.990       .  S
Zr1323     O1326   2.394       .  S
Zr1323     O1328   2.391       .  S
Zr1323     O1329   2.386       .  S
Zr1324     O1325   2.400       .  S
Zr1324     O1327   2.382       .  S
Zr1324     O1330   2.384       .  S
O1325      H1333   0.967       .  S
O1326     Zr1607   2.378   1_554  S
O1326     Zr1610   2.377       .  S
O1328     Zr1610   2.364       .  S
O1328      H1332   0.965       .  S
O1329     Zr1607   2.365   1_554  S
O1329      H1334   0.965       .  S
H1335      O1592   0.990       .  S
H1336      O1612   0.990       .  S
H1337      O1611   0.990       .  S
H1340      O1589   0.990   1_554  S
H1342      O1591   0.990       .  S
H1344      O1589   0.990   1_554  S
H1346      O1612   0.990       .  S
C1347      H1348   1.112       .  S
C1347      C1353   1.536       .  S
C1347      C1352   1.533       .  S
C1347      C1351   1.538       .  S
C1349      H1350   1.110       .  S
C1349      C1355   1.540       .  S
C1349      C1354   1.538       .  S
C1349      C1356   1.541       .  S
C1351      C1354   1.361       .  D
C1351      C1448   1.466       .  S
C1352      C1355   1.368       .  D
C1352      C1393   1.451       .  S
C1353      C1356   1.371       .  D
C1353      C1408   1.458       .  S
C1354      C1444   1.472       .  S
C1355      C1392   1.451       .  S
C1356      C1410   1.448       .  S
C1357      H1358   1.113       .  S
C1357      C1363   1.536       .  S
C1357      C1362   1.535       .  S
C1357      C1361   1.533       .  S
C1359      H1360   1.108       .  S
C1359      C1365   1.536       .  S
C1359      C1364   1.548       .  S
C1359      C1366   1.539       .  S
C1361      C1364   1.384       .  D
C1361      C1439   1.477       .  S
C1362      C1365   1.364       .  D
C1362      C1406   1.456       .  S
C1363      C1366   1.371       .  D
C1363      C1395   1.450       .  S
C1364      C1435   1.486       .  S
C1365      C1403   1.454       .  S
C1366      C1397   1.460       .  S
C1367      H1368   1.108       .  S
C1367      C1373   1.537       .  S
C1367      C1372   1.534       .  S
C1367      C1371   1.546       .  S
C1369      H1370   1.113       .  S
C1369      C1375   1.536       .  S
C1369      C1374   1.536       .  S
C1369      C1376   1.535       .  S
C1371      C1374   1.387       .  D
C1371      C1424   1.489       .  S
C1372      C1375   1.364       .  D
C1372      C1418   1.454       .  S
C1373      C1376   1.371       .  D
C1373      C1387   1.450       .  S
C1374      C1420   1.480       .  S
C1375      C1416   1.454       .  S
C1376      C1389   1.454       .  S
C1377      H1378   1.112       .  S
C1377      C1383   1.533       .  S
C1377      C1382   1.538       .  S
C1377      C1381   1.540       .  S
C1379      H1380   1.111       .  S
C1379      C1385   1.538       .  S
C1379      C1384   1.537       .  S
C1379      C1386   1.544       .  S
C1381      C1384   1.361       .  D
C1381      C1428   1.464       .  S
C1382      C1385   1.372       .  D
C1382      C1413   1.459       .  S
C1383      C1386   1.369       .  D
C1383      C1399   1.455       .  S
C1384      C1432   1.476       .  S
C1385      C1412   1.446       .  S
C1386      C1402   1.451       .  S
C1387      C1388   1.208       .  T
C1389      C1390   1.210       .  T
C1391      C1392   1.209       .  T
C1393      C1394   1.209       .  T
C1395      C1396   1.208       .  T
C1397      C1398   1.214       .  T
C1399      C1400   1.212       .  T
C1401      C1402   1.209       .  T
C1403      C1404   1.210       .  T
C1405      C1406   1.212       .  T
C1407      C1408   1.213       .  T
C1409      C1410   1.208       .  T
C1411      C1412   1.206       .  T
C1413      C1414   1.214       .  T
C1415      C1416   1.211       .  T
C1417      C1418   1.211       .  T
C1419      C1420   1.335       .  D
C1419      H1421   1.084       .  S
C1420      H1422   1.087       .  S
C1423      C1424   1.352       .  D
C1423      H1425   1.084       .  S
C1424      H1426   1.081       .  S
C1427      C1428   1.328       .  D
C1427      H1429   1.087       .  S
C1428      H1430   1.087       .  S
C1431      C1432   1.336       .  D
C1431      H1433   1.087       .  S
C1432      H1434   1.087       .  S
C1435      C1436   1.347       .  D
C1435      H1437   1.082       .  S
C1436      H1438   1.083       .  S
C1439      C1440   1.334       .  D
C1439      H1441   1.087       .  S
C1440      H1442   1.084       .  S
C1443      C1444   1.335       .  D
C1443      H1445   1.086       .  S
C1444      H1446   1.087       .  S
C1447      C1448   1.327       .  D
C1447      H1449   1.088       .  S
C1448      H1450   1.087       .  S
O1451     Zr1463   2.415       .  S
O1451      C1453   1.284       .  A
O1452     Zr1489   2.412       .  S
O1452      C1453   1.281       .  A
C1453      C1737   1.463       .  S
O1454      C1456   1.285       .  A
O1455     Zr1490   2.409       .  S
O1455      C1456   1.285       .  A
C1456      C1726   1.459       .  S
O1457     Zr1466   2.424       .  S
O1457      C1459   1.287       .  A
O1458     Zr1489   2.420       .  S
O1458      C1459   1.283       .  A
C1459      C1730   1.471       .  S
O1460      C1462   1.281       .  A
O1461     Zr1490   2.416       .  S
O1461      C1462   1.285       .  A
C1462      C1733   1.457       .  S
Zr1463     O1464   2.428       .  S
Zr1463     O1469   2.347       .  S
Zr1463     O1495   2.366       .  S
O1464      H1507   0.990       .  S
Zr1466     O1467   2.437       .  S
Zr1466     O1469   2.361       .  S
Zr1466     O1494   2.374       .  S
O1467      H1511   0.990       .  S
O1469     Zr1489   2.370       .  S
O1470     Zr1490   2.379       .  S
O1470      H1497   0.966       .  S
O1471     Zr1483   2.448       .  S
O1471      C1473   1.291       .  A
O1472     Zr1490   2.419       .  S
O1472      C1473   1.284       .  A
C1473      C1709   1.474       .  S
O1474      C1476   1.282       .  A
O1475     Zr1489   2.407       .  S
O1475      C1476   1.283       .  A
C1476      C1721   1.461       .  S
O1477     Zr1486   2.440       .  S
O1477      C1479   1.289       .  A
O1478     Zr1490   2.389       .  S
O1478      C1479   1.278       .  A
C1479      C1717   1.460       .  S
O1480      C1482   1.286       .  A
O1481     Zr1489   2.408       .  S
O1481      C1482   1.283       .  A
C1482      C1713   1.457       .  S
Zr1483     O1485   2.433       .  S
Zr1483     O1491   2.374       .  S
Zr1483     O1493   2.370       .  S
O1485      H1505   0.990       .  S
Zr1486     O1487   2.432       .  S
Zr1486     O1491   2.339       .  S
Zr1486     O1496   2.362       .  S
Zr1489     O1492   2.386       .  S
Zr1489     O1494   2.382       .  S
Zr1489     O1495   2.389       .  S
Zr1490     O1491   2.385       .  S
Zr1490     O1493   2.372       .  S
Zr1490     O1496   2.380       .  S
O1491      H1499   0.965       .  S
O1494      H1498   0.966       .  S
O1495      H1500   0.966       .  S
O1513     Zr1525   2.438       .  S
O1513      C1515   1.285       .  A
O1514     Zr1551   2.436       .  S
O1514      C1515   1.287       .  A
C1515      C1707   1.436       .  S
O1516      C1518   1.286       .  A
O1517     Zr1552   2.444       .  S
O1517      C1518   1.289       .  A
C1518      C1704   1.443       .  S
O1519     Zr1528   2.440       .  S
O1519      C1521   1.285       .  A
O1520     Zr1551   2.448       .  S
O1520      C1521   1.290       .  A
C1521      C1701   1.443       .  S
O1522      C1524   1.285       .  A
O1523     Zr1552   2.444       .  S
O1523      C1524   1.289       .  A
C1524      C1705   1.442       .  S
Zr1525     O1526   2.430       .  S
Zr1525     O1531   2.379       .  S
Zr1525     O1557   2.364       .  S
O1526      H1569   0.990       .  S
Zr1528     O1529   2.429       .  S
Zr1528     O1531   2.379       .  S
Zr1528     O1556   2.364       .  S
O1529      H1573   0.990       .  S
O1531     Zr1551   2.391       .  S
O1532     Zr1552   2.396       .  S
O1532      H1559   0.966       .  S
O1533     Zr1545   2.443       .  S
O1533      C1535   1.286       .  A
O1534     Zr2132   2.440   1_545  S
O1534      C1535   1.288       .  A
C1535      C1699   1.442       .  S
O1536      C1538   1.288       .  A
O1537     Zr2131   2.445   1_545  S
O1537      C1538   1.289       .  A
C1538      C1695   1.444       .  S
O1539     Zr1548   2.444       .  S
O1539      C1541   1.286       .  A
O1540     Zr2132   2.443   1_545  S
O1540      C1541   1.289       .  A
C1541      C1694   1.444       .  S
O1542      C1544   1.287       .  A
O1543     Zr2131   2.443   1_545  S
O1543      C1544   1.289       .  A
C1544      C1697   1.442       .  S
Zr1545     O1553   2.379       .  S
Zr1545     O1847   2.360   1_546  S
Zr1545     O2135   2.363   1_545  S
Zr1548     O1549   2.431       .  S
Zr1548     O1553   2.375       .  S
Zr1548     O2138   2.369   1_545  S
Zr1548     O1846   2.366   1_546  S
Zr1551     O2117   2.434       .  S
Zr1551     O2123   2.443       .  S
Zr1551     O2134   2.395       .  S
Zr1551     O1556   2.387       .  S
Zr1551     O1557   2.387       .  S
Zr1552     O2114   2.444       .  S
Zr1552     O2120   2.437       .  S
Zr1552     O2133   2.395       .  S
Zr1552     O1555   2.382       .  S
Zr1552     O1558   2.384       .  S
O1553     Zr2132   2.395   1_545  S
O1553      H1561   0.965       .  S
O1554     Zr2131   2.396   1_545  S
O1555     Zr2125   2.366       .  S
O1556     Zr1838   2.367       .  S
O1556      H1560   0.965       .  S
O1557     Zr1835   2.363       .  S
O1557      H1562   0.965       .  S
O1558     Zr2128   2.366       .  S
O1575     Zr1587   2.452       .  S
O1575      C1577   1.287       .  A
O1576      C1577   1.288       .  A
C1577      C1691   1.442       .  S
O1578      C1580   1.287       .  A
O1579      C1580   1.290       .  A
C1580      C1688   1.448       .  S
O1581     Zr1590   2.440       .  S
O1581      C1583   1.286       .  A
O1582      C1583   1.288       .  A
C1583      C1686   1.438       .  S
O1584      C1586   1.285       .  A
O1585      C1586   1.288       .  A
C1586      C1690   1.440       .  S
Zr1587     O1588   2.425       .  S
Zr1587     O1593   2.377       .  S
O1588      H1631   0.990       .  S
Zr1590     O1591   2.432       .  S
Zr1590     O1593   2.380       .  S
O1591      H1635   0.990       .  S
O1594      H1621   0.965       .  S
O1595     Zr1607   2.434       .  S
O1595      C1597   1.285       .  A
O1596     Zr1614   2.436       .  S
O1596      C1597   1.287       .  A
C1597      C1680   1.436       .  S
O1598      C1600   1.287       .  A
O1599     Zr1613   2.441       .  S
O1599      C1600   1.288       .  A
C1600      C1684   1.443       .  S
O1601     Zr1610   2.444   1_556  S
O1601      C1603   1.287       .  A
O1602     Zr1614   2.445       .  S
O1602      C1603   1.289       .  A
C1603      C1681   1.445       .  S
O1604      C1606   1.288       .  A
O1605     Zr1613   2.441       .  S
O1605      C1606   1.289       .  A
C1606      C1678   1.444       .  S
Zr1607     O1608   2.435       .  S
Zr1607     O1609   2.434       .  S
Zr1607     O1615   2.379       .  S
Zr1607     O1617   2.365       .  S
O1608      H1628   0.990   1_556  S
O1608      H1633   0.990   1_556  S
O1609      H1629   0.989   1_556  S
Zr1610     O1611   2.432       .  S
Zr1610     O1615   2.378   1_554  S
Zr1610     O1620   2.373   1_554  S
Zr1613     O1616   2.392       .  S
Zr1613     O1618   2.388       .  S
Zr1613     O1619   2.387       .  S
Zr1614     O1615   2.401       .  S
Zr1614     O1617   2.385       .  S
Zr1614     O1620   2.385       .  S
O1615      H1623   0.966       .  S
O1618      H1622   0.965       .  S
O1619      H1624   0.965       .  S
C1637      H1638   1.113       .  S
C1637      C1643   1.538       .  S
C1637      C1642   1.532       .  S
C1637      C1641   1.531       .  S
C1639      H1640   1.112       .  S
C1639      C1645   1.540       .  S
C1639      C1644   1.542       .  S
C1639      C1646   1.535       .  S
C1641      C1644   1.375       .  D
C1641      C1738   1.472       .  S
C1642      C1645   1.368       .  D
C1642      C1683   1.453       .  S
C1643      C1646   1.371       .  D
C1643      C1698   1.453       .  S
C1644      C1734   1.468       .  S
C1645      C1682   1.455       .  S
C1646      C1700   1.454       .  S
C1647      H1648   1.113       .  S
C1647      C1653   1.537       .  S
C1647      C1652   1.532       .  S
C1647      C1651   1.532       .  S
C1649      H1650   1.110       .  S
C1649      C1655   1.540       .  S
C1649      C1654   1.545       .  S
C1649      C1656   1.536       .  S
C1651      C1654   1.375       .  D
C1651      C1729   1.472       .  S
C1652      C1655   1.369       .  D
C1652      C1696   1.454       .  S
C1653      C1656   1.369       .  D
C1653      C1685   1.449       .  S
C1654      C1725   1.473       .  S
C1655      C1693   1.456       .  S
C1656      C1687   1.459       .  S
C1657      H1658   1.109       .  S
C1657      C1663   1.536       .  S
C1657      C1662   1.531       .  S
C1657      C1661   1.544       .  S
C1659      H1660   1.113       .  S
C1659      C1665   1.537       .  S
C1659      C1664   1.536       .  S
C1659      C1666   1.533       .  S
C1661      C1664   1.380       .  D
C1661      C1714   1.477       .  S
C1662      C1665   1.364       .  D
C1662      C1708   1.447       .  S
C1663      C1666   1.369       .  D
C1663      C1677   1.455       .  S
C1664      C1710   1.477       .  S
C1665      C1706   1.453       .  S
C1666      C1679   1.447       .  S
C1667      H1668   1.113       .  S
C1667      C1673   1.534       .  S
C1667      C1672   1.536       .  S
C1667      C1671   1.530       .  S
C1669      H1670   1.110       .  S
C1669      C1675   1.539       .  S
C1669      C1674   1.542       .  S
C1669      C1676   1.536       .  S
C1671      C1674   1.376       .  D
C1671      C1718   1.465       .  S
C1672      C1675   1.374       .  D
C1672      C1703   1.454       .  S
C1673      C1676   1.364       .  D
C1673      C1689   1.452       .  S
C1674      C1722   1.480       .  S
C1675      C1702   1.455       .  S
C1676      C1692   1.454       .  S
C1677      C1678   1.211       .  T
C1679      C1680   1.206       .  T
C1681      C1682   1.212       .  T
C1683      C1684   1.210       .  T
C1685      C1686   1.208       .  T
C1687      C1688   1.213       .  T
C1689      C1690   1.209       .  T
C1691      C1692   1.210       .  T
C1693      C1694   1.211       .  T
C1695      C1696   1.211       .  T
C1697      C1698   1.210       .  T
C1699      C1700   1.210       .  T
C1701      C1702   1.211       .  T
C1703      C1704   1.210       .  T
C1705      C1706   1.210       .  T
C1707      C1708   1.206       .  T
C1709      C1710   1.339       .  D
C1709      H1711   1.084       .  S
C1710      H1712   1.087       .  S
C1713      C1714   1.342       .  D
C1713      H1715   1.084       .  S
C1714      H1716   1.085       .  S
C1717      C1718   1.334       .  D
C1717      H1719   1.085       .  S
C1718      H1720   1.087       .  S
C1721      C1722   1.340       .  D
C1721      H1723   1.085       .  S
C1722      H1724   1.081       .  S
C1725      C1726   1.339       .  D
C1725      H1727   1.086       .  S
C1726      H1728   1.086       .  S
C1729      C1730   1.342       .  D
C1729      H1731   1.087       .  S
C1730      H1732   1.084       .  S
C1733      C1734   1.338       .  D
C1733      H1735   1.087       .  S
C1734      H1736   1.086       .  S
C1737      C1738   1.340       .  D
C1737      H1739   1.082       .  S
C1738      H1740   1.088       .  S
O1741     Zr1753   2.448       .  S
O1741      C1743   1.291       .  A
O1742     Zr1779   2.416       .  S
O1742      C1743   1.283       .  A
C1743      C2027   1.471       .  S
O1744     Zr2046   2.404       .  S
O1744      C1746   1.278       .  A
O1745     Zr1780   2.418       .  S
O1745      C1746   1.286       .  A
C1746      C2016   1.456       .  S
O1747     Zr1756   2.409   1_554  S
O1747      C1749   1.281       .  A
O1748     Zr1779   2.423       .  S
O1748      C1749   1.287       .  A
C1749      C2020   1.460       .  S
O1750     Zr2043   2.454       .  S
O1750      C1752   1.290       .  A
O1751     Zr1780   2.392       .  S
O1751      C1752   1.281       .  A
C1752      C2023   1.465       .  S
Zr1753     O2040   2.446   1_554  S
Zr1753     O1754   2.424       .  S
Zr1753     O2045   2.436       .  S
Zr1753     O1759   2.364       .  S
Zr1753     O2050   2.364   1_554  S
Zr1753     O2073   2.373   1_554  S
Zr1753     O1785   2.372       .  S
O1754      H1797   0.990       .  S
O1755     Zr2043   2.435       .  S
O1755      H2086   0.989       .  S
O1755      H2090   0.990       .  S
Zr1756     O2034   2.399       .  S
Zr1756     O1757   2.435       .  S
Zr1756     O2048   2.425       .  S
Zr1756     O2050   2.373       .  S
Zr1756     O1759   2.359   1_556  S
Zr1756     O1784   2.367   1_556  S
Zr1756     O2076   2.335       .  S
O1757      H2088   0.990       .  S
O1757      H1801   0.990       .  S
O1758     Zr2046   2.425       .  S
O1758      H2081   0.990       .  S
O1759     Zr1779   2.374       .  S
O1760     Zr2043   2.368       .  S
O1760     Zr2046   2.374       .  S
O1760     Zr1780   2.385       .  S
O1760      H1787   0.967       .  S
O1761     Zr1773   2.443       .  S
O1761      C1763   1.290       .  A
O1762     Zr1780   2.428       .  S
O1762      C1763   1.284       .  A
C1763      C1999   1.476       .  S
O1764     Zr2066   2.407   1_554  S
O1764      C1766   1.279       .  A
O1765     Zr1779   2.428       .  S
O1765      C1766   1.288       .  A
C1766      C2011   1.465       .  S
O1767     Zr1776   2.418       .  S
O1767      C1769   1.284       .  A
O1768     Zr1780   2.410       .  S
O1768      C1769   1.282       .  A
C1769      C2007   1.462       .  S
O1770     Zr2063   2.468       .  S
O1770      C1772   1.296       .  A
O1771     Zr1779   2.391       .  S
O1771      C1772   1.279       .  A
C1772      C2003   1.473       .  S
Zr1773     O2060   2.443       .  S
Zr1773     O2064   2.436       .  S
Zr1773     O1775   2.426       .  S
Zr1773     O1781   2.375       .  S
Zr1773     O2072   2.379       .  S
Zr1773     O2075   2.370       .  S
Zr1773     O1783   2.362       .  S
O1774     Zr2063   2.434       .  S
O1774      H2084   0.990   1_554  S
O1774      H2089   0.990       .  S
O1775      H1795   0.990       .  S
Zr1776     O2054   2.423       .  S
Zr1776     O1777   2.431       .  S
Zr1776     O2068   2.437       .  S
Zr1776     O2072   2.365       .  S
Zr1776     O1781   2.354       .  S
Zr1776     O1786   2.370       .  S
Zr1776     O2074   2.372       .  S
O1777      H2083   0.990       .  S
O1778     Zr2066   2.436       .  S
O1778      H2082   0.989       .  S
O1778      H2092   0.990       .  S
Zr1779     O1782   2.379       .  S
Zr1779     O1784   2.372       .  S
Zr1779     O1785   2.392       .  S
Zr1780     O1781   2.388       .  S
Zr1780     O1783   2.380       .  S
Zr1780     O1786   2.375       .  S
O1781      H1789   0.965       .  S
O1782     Zr2063   2.366       .  S
O1782     Zr2066   2.353   1_554  S
O1783     Zr2043   2.372       .  S
O1784     Zr2066   2.376   1_554  S
O1784      H1788   0.967       .  S
O1785     Zr2063   2.355       .  S
O1785      H1790   0.965       .  S
O1786     Zr2046   2.358       .  S
H1791      O2048   0.990       .  S
H1792      O2068   0.990       .  S
H1793      O2067   0.988       .  S
H1794      O2064   0.990       .  S
H1796      O2045   0.990       .  S
H1798      O2047   0.989       .  S
H1799      O2064   0.990       .  S
H1800      O2045   0.990       .  S
H1802      O2068   0.990       .  S
O1803     Zr1815   2.437   1_554  S
O1803      C1805   1.284       .  A
O1804     Zr1841   2.454       .  S
O1804      C1805   1.291       .  A
C1805      C1997   1.443       .  S
O1806     Zr2108   2.437       .  S
O1806      C1808   1.285       .  A
O1807     Zr1842   2.437       .  S
O1807      C1808   1.287       .  A
C1808      C1994   1.439       .  S
O1809     Zr1818   2.440   1_554  S
O1809      C1811   1.285       .  A
O1810     Zr1841   2.446       .  S
O1810      C1811   1.289       .  A
C1811      C1991   1.442       .  S
O1812     Zr2105   2.444       .  S
O1812      C1814   1.287       .  A
O1813     Zr1842   2.443       .  S
O1813      C1814   1.289       .  A
C1814      C1995   1.445       .  S
Zr1815     O2102   2.442       .  S
Zr1815     O1816   2.425   1_556  S
Zr1815     O2107   2.437       .  S
Zr1815     O1821   2.380   1_556  S
Zr1815     O2112   2.377       .  S
Zr1815     O2135   2.364       .  S
Zr1815     O1847   2.368   1_556  S
O1816      H1859   0.990       .  S
O1817     Zr2105   2.436       .  S
O1817      H2148   0.990       .  S
O1817      H2152   0.990       .  S
Zr1818     O2096   2.445       .  S
Zr1818     O1819   2.426   1_556  S
Zr1818     O2110   2.435       .  S
Zr1818     O2112   2.377       .  S
Zr1818     O1821   2.382   1_556  S
Zr1818     O1846   2.365   1_556  S
Zr1818     O2138   2.366       .  S
O1819      H2150   0.990       .  S
O1819      H1863   0.990       .  S
O1820     Zr2108   2.435       .  S
O1820      H2143   0.990       .  S
O1821     Zr1841   2.398       .  S
O1822     Zr2105   2.378       .  S
O1822     Zr2108   2.377       .  S
O1822     Zr1842   2.394       .  S
O1822      H1849   0.966       .  S
O1823     Zr1835   2.446       .  S
O1823      C1825   1.287       .  A
O1824      C1825   1.290       .  A
C1825      C1989   1.446       .  S
O1826     Zr2128   2.444   1_554  S
O1826      C1828   1.286       .  A
O1827      C1828   1.288       .  A
C1828      C1985   1.440       .  S
O1829     Zr1838   2.448       .  S
O1829      C1831   1.287       .  A
O1830      C1831   1.288       .  A
C1831      C1984   1.445       .  S
O1832     Zr2125   2.441   1_554  S
O1832      C1834   1.286       .  A
O1833      C1834   1.289       .  A
C1834      C1987   1.442       .  S
Zr1835     O2122   2.453       .  S
Zr1835     O2126   2.432       .  S
Zr1835     O2127   2.435       .  S
Zr1835     O1843   2.377       .  S
Zr1835     O2134   2.381       .  S
O1836     Zr2125   2.432       .  S
O1836      H2146   0.990       .  S
O1836      H2151   0.990       .  S
O1837     Zr2125   2.434   1_554  S
O1837      H2147   0.990   1_554  S
Zr1838     O2116   2.453       .  S
Zr1838     O1839   2.430       .  S
Zr1838     O2130   2.436       .  S
Zr1838     O2134   2.375       .  S
Zr1838     O1843   2.373       .  S
O1839      H2145   0.990       .  S
O1840     Zr2128   2.438       .  S
O1840      H2144   0.990   1_556  S
O1840      H2154   0.990       .  S
Zr1841     O1846   2.393       .  S
Zr1841     O1847   2.390       .  S
Zr1842     O1845   2.383       .  S
Zr1842     O1848   2.385       .  S
O1843      H1851   0.965       .  S
O1844     Zr2125   2.379   1_554  S
O1844     Zr2128   2.378   1_554  S
O1845     Zr2105   2.370       .  S
O1846      H1850   0.965   1_565  S
O1847      H1852   0.965       .  S
O1848     Zr2108   2.369       .  S
H1853      O2110   0.990   1_554  S
H1854      O2130   0.990       .  S
H1855      O2129   0.990   1_554  S
H1856      O2126   0.990       .  S
H1857      O2127   0.990       .  S
H1858      O2107   0.990   1_554  S
H1860      O2109   0.990       .  S
H1861      O2126   0.990       .  S
H1862      O2107   0.990   1_554  S
H1864      O2130   0.990       .  S
O1865     Zr1877   2.444   1_554  S
O1865      C1867   1.286       .  A
O1866      C1867   1.288       .  A
C1867      C1981   1.441       .  S
O1868     Zr2170   2.440       .  S
O1868      C1870   1.286       .  A
O1869      C1870   1.289       .  A
C1870      C1978   1.443       .  S
O1871     Zr1880   2.439       .  S
O1871      C1873   1.285       .  A
O1872      C1873   1.290       .  A
C1873      C1976   1.443       .  S
O1874     Zr2167   2.441       .  S
O1874      C1876   1.286       .  A
O1875      C1876   1.289       .  A
C1876      C1980   1.443       .  S
Zr1877     O2164   2.448       .  S
Zr1877     O1878   2.428   1_556  S
Zr1877     O2169   2.436       .  S
Zr1877     O1883   2.379   1_556  S
Zr1877     O2174   2.371       .  S
O1878      H1921   0.990       .  S
O1879     Zr2167   2.437       .  S
O1879      H2210   0.990       .  S
O1879      H2214   0.990       .  S
Zr1880     O2158   2.444   1_554  S
Zr1880     O1881   2.428       .  S
Zr1880     O2172   2.435       .  S
Zr1880     O2174   2.375   1_554  S
Zr1880     O1883   2.383       .  S
O1881      H2212   0.990       .  S
O1881      H1925   0.990       .  S
O1882     Zr2170   2.434       .  S
O1882      H2205   0.990       .  S
O1884     Zr2167   2.376       .  S
O1884     Zr2170   2.380       .  S
O1884      H1911   0.965       .  S
O1885     Zr1897   2.433       .  S
O1885      C1887   1.285       .  A
O1886     Zr1904   2.443       .  S
O1886      C1887   1.289       .  A
C1887      C1970   1.439       .  S
O1888     Zr2190   2.446       .  S
O1888      C1890   1.287       .  A
O1889     Zr1903   2.444       .  S
O1889      C1890   1.289       .  A
C1890      C1974   1.444       .  S
O1891     Zr1900   2.444       .  S
O1891      C1893   1.287       .  A
O1892     Zr1904   2.455       .  S
O1892      C1893   1.292       .  A
C1893      C1971   1.449       .  S
O1894     Zr2187   2.442   1_554  S
O1894      C1896   1.287       .  A
O1895     Zr1903   2.441       .  S
O1895      C1896   1.288       .  A
C1896      C1968   1.441       .  S
Zr1897     O2184   2.451       .  S
Zr1897     O1898   2.429       .  S
Zr1897     O1899   2.433       .  S
Zr1897     O1905   2.377       .  S
Zr1897     O2196   2.377       .  S
Zr1897     O2199   2.358       .  S
Zr1897     O1907   2.371       .  S
O1898      H1918   0.990       .  S
O1898      H1923   0.990       .  S
O1899      H1919   0.990       .  S
Zr1900     O2178   2.450       .  S
Zr1900     O1901   2.426       .  S
Zr1900     O2192   2.437       .  S
Zr1900     O2196   2.378       .  S
Zr1900     O1905   2.378       .  S
Zr1900     O1910   2.370       .  S
Zr1900     O2198   2.363       .  S
O1901      H2207   0.990       .  S
O1902     Zr2190   2.436       .  S
O1902      H2206   0.990   1_554  S
O1902      H2216   0.990   1_554  S
Zr1903     O1906   2.391       .  S
Zr1903     O1908   2.388       .  S
Zr1903     O1909   2.388       .  S
Zr1904     O1905   2.400       .  S
Zr1904     O1907   2.386       .  S
Zr1904     O1910   2.385       .  S
O1905      H1913   0.966       .  S
O1906     Zr2187   2.375   1_554  S
O1906     Zr2190   2.376       .  S
O1908     Zr2190   2.368       .  S
O1908      H1912   0.965       .  S
O1909     Zr2187   2.365   1_554  S
O1909      H1914   0.965       .  S
H1915      O2172   0.990   1_556  S
H1916      O2192   0.990       .  S
H1917      O2191   0.990       .  S
H1920      O2169   0.990   1_554  S
H1922      O2171   0.990       .  S
H1924      O2169   0.990   1_554  S
H1926      O2192   0.990       .  S
C1927      H1928   1.113       .  S
C1927      C1933   1.540       .  S
C1927      C1932   1.534       .  S
C1927      C1931   1.532       .  S
C1929      H1930   1.110       .  S
C1929      C1935   1.540       .  S
C1929      C1934   1.545       .  S
C1929      C1936   1.536       .  S
C1931      C1934   1.382       .  D
C1931      C2028   1.476       .  S
C1932      C1935   1.366       .  D
C1932      C1973   1.455       .  S
C1933      C1936   1.372       .  D
C1933      C1988   1.454       .  S
C1934      C2024   1.477       .  S
C1935      C1972   1.460       .  S
C1936      C1990   1.457       .  S
C1937      H1938   1.111       .  S
C1937      C1943   1.537       .  S
C1937      C1942   1.540       .  S
C1937      C1941   1.536       .  S
C1939      H1940   1.111       .  S
C1939      C1945   1.533       .  S
C1939      C1944   1.540       .  S
C1939      C1946   1.539       .  S
C1941      C1944   1.366       .  D
C1941      C2019   1.475       .  S
C1942      C1945   1.370       .  D
C1942      C1986   1.452       .  S
C1943      C1946   1.370       .  D
C1943      C1975   1.455       .  S
C1944      C2015   1.467       .  S
C1945      C1983   1.456       .  S
C1946      C1977   1.454       .  S
C1947      H1948   1.113       .  S
C1947      C1953   1.532       .  S
C1947      C1952   1.542       .  S
C1947      C1951   1.535       .  S
C1949      H1950   1.113       .  S
C1949      C1955   1.531       .  S
C1949      C1954   1.538       .  S
C1949      C1956   1.540       .  S
C1951      C1954   1.383       .  D
C1951      C2004   1.472       .  S
C1952      C1955   1.366       .  D
C1952      C1998   1.454       .  S
C1953      C1956   1.369       .  D
C1953      C1967   1.452       .  S
C1954      C2000   1.475       .  S
C1955      C1996   1.455       .  S
C1956      C1969   1.452       .  S
C1957      H1958   1.113       .  S
C1957      C1963   1.535       .  S
C1957      C1962   1.536       .  S
C1957      C1961   1.533       .  S
C1959      H1960   1.111       .  S
C1959      C1965   1.537       .  S
C1959      C1964   1.542       .  S
C1959      C1966   1.536       .  S
C1961      C1964   1.374       .  D
C1961      C2008   1.469       .  S
C1962      C1965   1.369       .  D
C1962      C1993   1.450       .  S
C1963      C1966   1.369       .  D
C1963      C1979   1.453       .  S
C1964      C2012   1.477       .  S
C1965      C1992   1.453       .  S
C1966      C1982   1.451       .  S
C1967      C1968   1.209       .  T
C1969      C1970   1.209       .  T
C1971      C1972   1.214       .  T
C1973      C1974   1.211       .  T
C1975      C1976   1.211       .  T
C1977      C1978   1.210       .  T
C1979      C1980   1.210       .  T
C1981      C1982   1.209       .  T
C1983      C1984   1.212       .  T
C1985      C1986   1.209       .  T
C1987      C1988   1.210       .  T
C1989      C1990   1.212       .  T
C1991      C1992   1.210       .  T
C1993      C1994   1.208       .  T
C1995      C1996   1.211       .  T
C1997      C1998   1.211       .  T
C1999      C2000   1.341       .  D
C1999      H2001   1.085       .  S
C2000      H2002   1.088       .  S
C2003      C2004   1.332       .  D
C2003      H2005   1.086       .  S
C2004      H2006   1.087       .  S
C2007      C2008   1.340       .  D
C2007      H2009   1.081       .  S
C2008      H2010   1.087       .  S
C2011      C2012   1.334       .  D
C2011      H2013   1.087       .  S
C2012      H2014   1.078       .  S
C2015      C2016   1.331       .  D
C2015      H2017   1.086       .  S
C2016      H2018   1.087       .  S
C2019      C2020   1.336       .  D
C2019      H2021   1.085       .  S
C2020      H2022   1.086       .  S
C2023      C2024   1.348       .  D
C2023      H2025   1.085       .  S
C2024      H2026   1.086       .  S
C2027      C2028   1.339       .  D
C2027      H2029   1.084       .  S
C2028      H2030   1.088       .  S
O2031     Zr2043   2.461       .  S
O2031      C2033   1.294       .  A
O2032     Zr2069   2.402       .  S
O2032      C2033   1.280       .  A
C2033      C2317   1.474       .  S
O2034      C2036   1.278       .  A
O2035     Zr2070   2.445       .  S
O2035      C2036   1.290       .  A
C2036      C2306   1.459       .  S
O2037     Zr2046   2.415       .  S
O2037      C2039   1.285       .  A
O2038     Zr2069   2.401       .  S
O2038      C2039   1.279       .  A
C2039      C2310   1.457       .  S
O2040      C2042   1.289       .  A
O2041     Zr2070   2.418       .  S
O2041      C2042   1.285       .  A
C2042      C2313   1.472       .  S
Zr2043     O2044   2.427       .  S
Zr2043     O2049   2.353       .  S
Zr2043     O2075   2.371       .  S
O2044      H2087   0.990       .  S
Zr2046     O2047   2.438       .  S
Zr2046     O2049   2.356       .  S
Zr2046     O2074   2.351       .  S
O2047      H2091   0.989       .  S
O2049     Zr2069   2.368       .  S
O2050     Zr2070   2.388       .  S
O2050      H2077   0.966       .  S
O2051     Zr2063   2.455   1_556  S
O2051      C2053   1.290       .  A
O2052     Zr2070   2.427       .  S
O2052      C2053   1.288       .  A
C2053      C2289   1.476       .  S
O2054      C2056   1.282       .  A
O2055     Zr2069   2.408       .  S
O2055      C2056   1.285       .  A
C2056      C2301   1.462       .  S
O2057     Zr2066   2.404       .  S
O2057      C2059   1.278       .  A
O2058     Zr2070   2.438       .  S
O2058      C2059   1.288       .  A
C2059      C2297   1.449       .  S
O2060      C2062   1.288       .  A
O2061     Zr2069   2.392       .  S
O2061      C2062   1.281       .  A
C2062      C2293   1.464       .  S
Zr2063     O2065   2.433       .  S
Zr2063     O2071   2.381   1_554  S
Zr2063     O2073   2.371   1_554  S
O2065      H2085   0.990       .  S
Zr2066     O2067   2.425       .  S
Zr2066     O2071   2.363       .  S
Zr2066     O2076   2.347       .  S
Zr2069     O2072   2.378       .  S
Zr2069     O2074   2.374       .  S
Zr2069     O2075   2.386       .  S
Zr2070     O2071   2.396       .  S
Zr2070     O2073   2.391       .  S
Zr2070     O2076   2.365       .  S
O2071      H2079   0.965       .  S
O2074      H2078   0.965       .  S
O2075      H2080   0.967       .  S
O2093     Zr2105   2.448       .  S
O2093      C2095   1.287       .  A
O2094     Zr2131   2.449       .  S
O2094      C2095   1.290       .  A
C2095      C2287   1.446       .  S
O2096      C2098   1.287       .  A
O2097     Zr2132   2.433       .  S
O2097      C2098   1.287       .  A
C2098      C2284   1.441       .  S
O2099     Zr2108   2.444       .  S
O2099      C2101   1.287       .  A
O2100     Zr2131   2.442       .  S
O2100      C2101   1.289       .  A
C2101      C2281   1.442       .  S
O2102      C2104   1.286       .  A
O2103     Zr2132   2.438       .  S
O2103      C2104   1.288       .  A
C2104      C2285   1.441       .  S
Zr2105     O2106   2.432       .  S
Zr2105     O2111   2.377       .  S
Zr2105     O2137   2.370       .  S
O2106      H2149   0.990       .  S
Zr2108     O2109   2.430       .  S
Zr2108     O2111   2.376       .  S
Zr2108     O2136   2.360       .  S
O2109      H2153   0.990       .  S
O2111     Zr2131   2.391       .  S
O2112     Zr2132   2.398       .  S
O2112      H2139   0.966       .  S
O2113     Zr2125   2.437       .  S
O2113      C2115   1.285       .  A
O2114      C2115   1.289       .  A
C2115      C2279   1.441       .  S
O2116      C2118   1.288       .  A
O2117      C2118   1.287       .  A
C2118      C2275   1.442       .  S
O2119     Zr2128   2.438       .  S
O2119      C2121   1.286       .  A
O2120      C2121   1.288       .  A
C2121      C2274   1.437       .  S
O2122      C2124   1.289       .  A
O2123      C2124   1.289       .  A
C2124      C2277   1.445       .  S
Zr2125     O2133   2.375       .  S
Zr2128     O2129   2.427       .  S
Zr2128     O2133   2.376       .  S
Zr2131     O2136   2.388       .  S
Zr2131     O2137   2.390       .  S
Zr2132     O2135   2.383       .  S
Zr2132     O2138   2.386       .  S
O2133      H2141   0.966       .  S
O2136      H2140   0.965   1_565  S
O2137      H2142   0.965       .  S
O2155     Zr2167   2.441       .  S
O2155      C2157   1.286       .  A
O2156      C2157   1.290       .  A
C2157      C2271   1.442       .  S
O2158      C2160   1.287       .  A
O2159      C2160   1.289       .  A
C2160      C2268   1.443       .  S
O2161     Zr2170   2.445       .  S
O2161      C2163   1.287       .  A
O2162      C2163   1.288       .  A
C2163      C2266   1.441       .  S
O2164      C2166   1.288       .  A
O2165      C2166   1.289       .  A
C2166      C2270   1.447       .  S
Zr2167     O2168   2.429       .  S
Zr2167     O2173   2.380       .  S
O2168      H2211   0.990       .  S
Zr2170     O2171   2.431       .  S
Zr2170     O2173   2.377       .  S
O2171      H2215   0.990       .  S
O2174      H2201   0.967       .  S
O2175     Zr2187   2.439       .  S
O2175      C2177   1.286       .  A
O2176     Zr2194   2.433       .  S
O2176      C2177   1.287       .  A
C2177      C2260   1.437       .  S
O2178      C2180   1.288       .  A
O2179     Zr2193   2.434       .  S
O2179      C2180   1.287       .  A
C2180      C2264   1.440       .  S
O2181     Zr2190   2.441   1_556  S
O2181      C2183   1.285       .  A
O2182     Zr2194   2.446       .  S
O2182      C2183   1.290       .  A
C2183      C2261   1.445       .  S
O2184      C2186   1.288       .  A
O2185     Zr2193   2.445       .  S
O2185      C2186   1.289       .  A
C2186      C2258   1.448       .  S
Zr2187     O2188   2.432       .  S
Zr2187     O2189   2.434   1_556  S
Zr2187     O2195   2.375       .  S
Zr2187     O2197   2.369       .  S
O2188      H2208   0.990       .  S
O2188      H2213   0.990       .  S
O2189      H2209   0.990   1_554  S
Zr2190     O2191   2.435   1_554  S
Zr2190     O2195   2.373   1_554  S
Zr2190     O2200   2.371   1_554  S
Zr2193     O2196   2.392       .  S
Zr2193     O2198   2.389       .  S
Zr2193     O2199   2.386       .  S
Zr2194     O2195   2.395       .  S
Zr2194     O2197   2.383       .  S
Zr2194     O2200   2.382       .  S
O2195      H2203   0.966       .  S
O2198      H2202   0.965       .  S
O2199      H2204   0.965       .  S
C2217      H2218   1.113       .  S
C2217      C2223   1.532       .  S
C2217      C2222   1.530       .  S
C2217      C2221   1.533       .  S
C2219      H2220   1.109       .  S
C2219      C2225   1.540       .  S
C2219      C2224   1.551       .  S
C2219      C2226   1.540       .  S
C2221      C2224   1.387       .  D
C2221      C2318   1.478       .  S
C2222      C2225   1.367       .  D
C2222      C2263   1.451       .  S
C2223      C2226   1.367       .  D
C2223      C2278   1.455       .  S
C2224      C2314   1.489       .  S
C2225      C2262   1.457       .  S
C2226      C2280   1.453       .  S
C2227      H2228   1.113       .  S
C2227      C2233   1.537       .  S
C2227      C2232   1.533       .  S
C2227      C2231   1.528       .  S
C2229      H2230   1.112       .  S
C2229      C2235   1.539       .  S
C2229      C2234   1.544       .  S
C2229      C2236   1.537       .  S
C2231      C2234   1.369       .  D
C2231      C2309   1.463       .  S
C2232      C2235   1.369       .  D
C2232      C2276   1.452       .  S
C2233      C2236   1.369       .  D
C2233      C2265   1.450       .  S
C2234      C2305   1.475       .  S
C2235      C2273   1.448       .  S
C2236      C2267   1.453       .  S
C2237      H2238   1.109       .  S
C2237      C2243   1.536       .  S
C2237      C2242   1.534       .  S
C2237      C2241   1.541       .  S
C2239      H2240   1.110       .  S
C2239      C2245   1.536       .  S
C2239      C2244   1.545       .  S
C2239      C2246   1.536       .  S
C2241      C2244   1.380       .  D
C2241      C2294   1.477       .  S
C2242      C2245   1.365       .  D
C2242      C2288   1.457       .  S
C2243      C2246   1.371       .  D
C2243      C2257   1.458       .  S
C2244      C2290   1.491       .  S
C2245      C2286   1.451       .  S
C2246      C2259   1.447       .  S
C2247      H2248   1.112       .  S
C2247      C2253   1.533       .  S
C2247      C2252   1.539       .  S
C2247      C2251   1.540       .  S
C2249      H2250   1.110       .  S
C2249      C2255   1.537       .  S
C2249      C2254   1.537       .  S
C2249      C2256   1.543       .  S
C2251      C2254   1.363       .  D
C2251      C2298   1.470       .  S
C2252      C2255   1.374       .  D
C2252      C2283   1.452       .  S
C2253      C2256   1.367       .  D
C2253      C2269   1.458       .  S
C2254      C2302   1.469       .  S
C2255      C2282   1.453       .  S
C2256      C2272   1.452       .  S
C2257      C2258   1.213       .  T
C2259      C2260   1.207       .  T
C2261      C2262   1.212       .  T
C2263      C2264   1.209       .  T
C2265      C2266   1.209       .  T
C2267      C2268   1.211       .  T
C2269      C2270   1.213       .  T
C2271      C2272   1.210       .  T
C2273      C2274   1.207       .  T
C2275      C2276   1.210       .  T
C2277      C2278   1.211       .  T
C2279      C2280   1.210       .  T
C2281      C2282   1.210       .  T
C2283      C2284   1.209       .  T
C2285      C2286   1.209       .  T
C2287      C2288   1.213       .  T
C2289      C2290   1.347       .  D
C2289      H2291   1.085       .  S
C2290      H2292   1.085       .  S
C2293      C2294   1.346       .  D
C2293      H2295   1.084       .  S
C2294      H2296   1.085       .  S
C2297      C2298   1.326       .  D
C2297      H2299   1.088       .  S
C2298      H2300   1.087       .  S
C2301      C2302   1.338       .  D
C2301      H2303   1.086       .  S
C2302      H2304   1.087       .  S
C2305      C2306   1.331       .  D
C2305      H2307   1.086       .  S
C2306      H2308   1.089       .  S
C2309      C2310   1.339       .  D
C2309      H2311   1.087       .  S
C2310      H2312   1.083       .  S
C2313      C2314   1.348       .  D
C2313      H2315   1.085       .  S
C2314      H2316   1.085       .  S
C2317      C2318   1.335       .  D
C2317      H2319   1.083       .  S
C2318      H2320   1.088       .  S
