geometry optimzed in LAMMPS
_audit_creation_date              2020-11-30 
_audit_creation_method            'lammps2cif' 
_symmetry_space_group_name_H-M    'P1' 
_symmetry_Int_Tables_number       1 
_symmetry_cell_setting            triclinic 
loop_ 
_symmetry_equiv_pos_as_xyz 
  x,y,z 
_cell_length_a                    30.23521686 
_cell_length_b                    26.685195426823622 
_cell_length_c                    40.55128576906755 
_cell_angle_alpha                 89.83926302521792 
_cell_angle_beta                  85.52936334546614 
_cell_angle_gamma                 90.72203997074831 
loop_ 
_atom_site_label 
_atom_site_type_symbol 
_atom_site_fract_x 
_atom_site_fract_y 
_atom_site_fract_z 
_atom_site_charge 
C1          C  0.06424083  0.35521874  0.00586783     0.85800
C2          C  0.08787468  0.37371047  0.03594591    -0.54400
C3          C  0.10827900  0.41932535  0.03158876     0.08700
C4          C  0.10678215  0.44459261  0.49680153     0.19700
C5          C  0.03304844  0.39885829  0.99858669    -0.55200
C6          C  0.05400303  0.44502690  0.99375789     0.08800
C7          C  0.10370357  0.35929165  0.47653043    -0.54700
C8          C  0.12384687  0.40474831  0.47205921     0.09400
H9          H  0.08967571  0.35343414  0.05890487     0.13900
H10         H  0.12555708  0.48035582  0.49368888    -0.00300
H11         H  0.99781735  0.39272278  0.99726827     0.14200
H12         H  0.11116436  0.32838309  0.45969047     0.14000
C13         C  0.02453505  0.58324687  0.46751850     0.85800
C14         C  0.48718842  0.57998679  0.49558784    -0.54400
C15         C  0.46602275  0.53494822  0.50007509     0.08700
C16         C  0.98458605  0.49614766  0.47568103     0.19700
C17         C  0.05535606  0.54049239  0.47739258    -0.55200
C18         C  0.03428312  0.49432238  0.48196707     0.08800
C19         C  0.00475187  0.56303761  0.43657458    -0.54700
C20         C  0.48330322  0.51638155  0.44128804     0.09400
H21         H  0.48012446  0.61335996  0.01353455     0.13900
H22         H  0.46605523  0.45813665  0.47933736    -0.00300
H23         H  0.09014570  0.54630512  0.48047504     0.14200
H24         H  0.50757251  0.58172250  0.41420596     0.14000
Zr25       Zr  0.28570248  0.53058707  0.18541159     2.17500
O26         O  0.24047992  0.59223048  0.15945765    -0.52000
O27         O  0.33916809  0.52705825  0.13757608    -0.75200
O28         O  0.31260545  0.61728622  0.19270016    -0.82000
O29         O  0.20888125  0.42640403  0.15924705    -0.83800
O30         O  0.34590077  0.62220746  0.24086218    -0.79400
O31         O  0.23609157  0.50377856  0.14407133    -0.91000
O32         O  0.38880907  0.46742742  0.14758508    -0.77000
O33         O  0.35503606  0.51896712  0.20841793    -0.86500
O34         O  0.30274787  0.44396658  0.17837074    -0.86200
O35         O  0.27228360  0.55277982  0.24267640    -0.72900
O36         O  0.22573253  0.48324215  0.21364772    -0.85000
Zr37       Zr  0.30278897  0.40700194  0.28788879     2.26400
Zr38       Zr  0.34199728  0.53948454  0.26574506     2.06300
Zr39       Zr  0.24416716  0.39686325  0.20755127     2.10000
Zr40       Zr  0.37160250  0.43249777  0.20171619     1.78800
O41         O  0.16726224  0.37302687  0.22301135    -0.93900
O42         O  0.44828215  0.46172404  0.20164702    -0.41700
O43         O  0.31361324  0.38587832  0.23068671    -0.78300
O44         O  0.36299517  0.45344964  0.25923652    -0.97000
O45         O  0.28348303  0.49257439  0.29485756    -0.90300
O46         O  0.23269744  0.41663913  0.26513930    -0.93100
C47         C  0.37310647  0.50031674  0.12897124     1.00600
C48         C  0.21163598  0.46488341  0.14006279     1.13600
C49         C  0.33225436  0.64212536  0.21474440     1.04300
O50         O  0.41949835  0.56601569  0.25920549    -0.95300
O51         O  0.37707173  0.51504861  0.31488030    -0.91000
O52         O  0.35720818  0.43401187  0.32639005    -0.84200
C53         C  0.37848074  0.47474531  0.33204570     1.11000
O54         O  0.15901643  0.55489810  0.24758766    -0.97300
Zr55       Zr  0.21471150  0.50316726  0.27109544     1.88900
O56         O  0.24735614  0.40917372  0.33443495    -0.73900
O57         O  0.32044901  0.59760468  0.31017936    -0.53200
O58         O  0.20919715  0.58097628  0.30240907    -0.97800
O59         O  0.13944485  0.46809530  0.27682207    -0.55100
O60         O  0.20219499  0.47485957  0.32749869    -0.74400
C61         C  0.21636284  0.43894293  0.34463169     0.97900
O62         O  0.32371480  0.33861638  0.32341410    -0.63200
O63         O  0.25098875  0.33457828  0.16358861    -0.58000
O64         O  0.29953609  0.31973994  0.26915829    -0.94700
O65         O  0.25762859  0.31141385  0.22528049    -0.93200
O66         O  0.37344870  0.36067453  0.16471383    -0.93500
O67         O  0.41970023  0.36608237  0.21852755    -0.92300
C68         C  0.28147229  0.29318390  0.24716879     1.16800
H69         H  0.30478474  0.43474317  0.15526551     0.32700
H70         H  0.39098661  0.44712332  0.26831175     0.43600
H71         H  0.21061852  0.39474003  0.27621973     0.37100
H72         H  0.26371107  0.58744501  0.24472811     0.33600
H73         H  0.46477232  0.44133632  0.18453500     0.25400
H74         H  0.34693999  0.61927408  0.31208214     0.31300
H75         H  0.19046415  0.57260018  0.32284154     0.37200
H76         H  0.35105375  0.33686370  0.17503498     0.31700
H77         H  0.22010251  0.32531241  0.15942491     0.30500
H78         H  0.15137476  0.37945491  0.20300881     0.32200
H79         H  0.12416659  0.48672194  0.29538778     0.31200
H80         H  0.40155872  0.34755211  0.23605207     0.35200
H81         H  0.35650332  0.33719736  0.32049198     0.27900
H82         H  0.26148927  0.61412368  0.14591297     0.32200
H83         H  0.14068366  0.56870778  0.26664644     0.35000
H84         H  0.26267029  0.35301228  0.14347444     0.27600
H85         H  0.31705863  0.35027978  0.34640417     0.40500
H86         H  0.43633797  0.53440207  0.25832567     0.30500
H87         H  0.44837133  0.49583642  0.19197519     0.38200
H88         H  0.14215889  0.43376299  0.28564526     0.30000
H89         H  0.29839576  0.61978415  0.30102390     0.30100
H90         H  0.22821968  0.61369636  0.17774588     0.30300
C91         C  0.34128828  0.08463836  0.23759601     0.85800
C92         C  0.37971679  0.08100674  0.21090258    -0.54400
C93         C  0.40050937  0.03607653  0.20957555     0.08700
C94         C  0.38065159  0.99783654  0.23532096     0.19700
C95         C  0.31054100  0.03964758  0.22979823    -0.55200
C96         C  0.33138819  0.99371736  0.22807134     0.08800
C97         C  0.36076439  0.06957430  0.26980311    -0.54700
C98         C  0.38083711  0.02418843  0.26925633     0.09400
H99         H  0.38750524  0.11057355  0.19281526     0.13900
H100        H  0.39863754  0.96200899  0.23450856    -0.00300
H101        H  0.27623430  0.04398288  0.22496439     0.14200
H102        H  0.36011490  0.09424095  0.29108024     0.14000
C103        C  0.30157373  0.85456860  0.20667376     0.85800
C104        C  0.27725751  0.87096098  0.17661484    -0.54400
C105        C  0.25564670  0.91537409  0.18029606     0.08700
C106        C  0.25934067  0.93959896  0.21459039     0.19700
C107        C  0.33148179  0.89999388  0.21419180    -0.55200
C108        C  0.30956820  0.94504283  0.21849993     0.08800
C109        C  0.26475782  0.85449302  0.23502726    -0.54700
C110        C  0.24376017  0.89874322  0.23979326     0.09400
H111        H  0.27374559  0.84858337  0.15482270     0.13900
H112        H  0.24015288  0.97444677  0.21806365    -0.00300
H113        H  0.36663186  0.89552791  0.21646319     0.14200
H114        H  0.25806950  0.82314483  0.25192466     0.14000
Zr115      Zr  0.08092213  0.02763281  0.02575163     2.17500
O116        O  0.13337440  0.08824313  0.04598577    -0.52000
O117        O  0.02937872  0.02419203  0.07487060    -0.75200
O118        O  0.05476440  0.11421664  0.02185639    -0.82000
O119        O  0.15221504  0.92049030  0.05070199    -0.83800
O120        O  0.02125415  0.12519257  0.47156097    -0.79400
O121        O  0.12856224  0.99781453  0.06726164    -0.91000
O122        O  0.47723982  0.96812665  0.06425324    -0.77000
O123        O  0.01060379  0.01982238  0.00329866    -0.86500
O124        O  0.05940452  0.94159986  0.03231695    -0.86200
O125        O  0.09445688  0.05428350  0.46721640    -0.72900
O126        O  0.13745717  0.98108587  0.49555040    -0.85000
Zr127      Zr  0.05615762  0.91084836  0.42207618     2.26400
Zr128      Zr  0.02392002  0.04444564  0.44448650     2.06300
Zr129      Zr  0.11521296  0.89369971  0.00223420     2.10000
Zr130      Zr  0.49088965  0.93588071  0.00875261     1.78800
O131        O  0.18819882  0.86454440  0.49162203    -0.93900
O132        O  0.41711453  0.97178814  0.00921497    -0.41700
O133        O  0.04291209  0.88836235  0.47926990    -0.78300
O134        O  0.50045172  0.95485141  0.45172206    -0.97000
O135        O  0.07954083  0.99592100  0.41453118    -0.90300
O136        O  0.12654587  0.91722186  0.44484407    -0.93100
C137        C  0.49533882  0.99919638  0.08329696     1.00600
C138        C  0.15158800  0.95817766  0.07041666     1.13600
C139        C  0.03542535  0.14044180  0.00055934     1.04300
O140        O  0.44877466  0.07066422  0.45193711    -0.95300
O141        O  0.48774646  0.01838751  0.39719989    -0.91000
O142        O  0.50767272  0.93916915  0.38270878    -0.84200
C143        C  0.48649626  0.97990946  0.37841626     1.11000
O144        O  0.20270200  0.05974810  0.46073481    -0.97300
Zr145      Zr  0.14895449  0.00297067  0.43818128     1.88900
O146        O  0.11300162  0.90699667  0.37613673    -0.73900
O147        O  0.04908616  0.10414371  0.40126850    -0.53200
O148        O  0.15756606  0.07608157  0.40194251    -0.97800
O149        O  0.22446132  0.97134628  0.43639760    -0.55100
O150        O  0.16435640  0.96751549  0.38371655    -0.74400
C151        C  0.14805915  0.93240563  0.36667390     0.97900
O152        O  0.52591519  0.84182218  0.38984658    -0.63200
O153        O  0.10363956  0.82970987  0.04517385    -0.58000
O154        O  0.05989460  0.82225550  0.43626751    -0.94700
O155        O  0.10082146  0.81214304  0.48040186    -0.93200
O156        O  0.48286789  0.86027131  0.04254993    -0.93500
O157        O  0.43428875  0.87769803  0.99176992    -0.92300
C158        C  0.07806294  0.79479946  0.45742903     1.16800
H159        H  0.05722130  0.93170041  0.05532987     0.32700
H160        H  0.47243543  0.94963552  0.44230084     0.43600
H161        H  0.14781160  0.89471861  0.43399201     0.37100
H162        H  0.10454341  0.08873301  0.46538353     0.33600
H163        H  0.40068064  0.95761012  0.02925658     0.25400
H164        H  0.02426524  0.12783229  0.40032070     0.31300
H165        H  0.14318195  0.06640018  0.38175178     0.37200
H166        H  0.45380921  0.86356693  0.05535199     0.31700
H167        H  0.13372194  0.82164953  0.05151705     0.30500
H168        H  0.20645471  0.87112692  0.00831299     0.32200
H169        H  0.23811982  0.98068972  0.41420275     0.31200
H170        H  0.45684801  0.84766449  0.47463954     0.35200
H171        H  0.49334486  0.84528382  0.39371853     0.27900
H172        H  0.11583860  0.10974833  0.06184537     0.32200
H173        H  0.22184352  0.07240403  0.44150547     0.35000
H174        H  0.08932418  0.84715718  0.06461639     0.27600
H175        H  0.53298947  0.85111943  0.36635559     0.40500
H176        H  0.43006405  0.03989842  0.45306855     0.30500
H177        H  0.42139389  0.00764582  0.01447508     0.38200
H178        H  0.22129943  0.93442135  0.43572415     0.30000
H179        H  0.07291399  0.12393318  0.41072869     0.30100
H180        H  0.14212810  0.11026994  0.02682605     0.30300
C181        C  0.17449572  0.89343182  0.27662320    -0.27000
C182        C  0.21885926  0.90873619  0.27170716    -0.15100
C183        C  0.24100686  0.92720027  0.29853047     0.35600
C184        C  0.21708106  0.93447356  0.32911024    -0.26500
C185        C  0.17193516  0.92116240  0.33405738    -0.15700
C186        C  0.15084844  0.89888862  0.30762522     0.36600
N187        N  0.10543834  0.88266457  0.31206422    -0.89900
H188        H  0.15845095  0.87661744  0.25632103     0.17700
H189        H  0.23413977  0.94981941  0.34940708     0.17700
N190        N  0.28797698  0.93713077  0.29491624    -0.89000
H191        H  0.09488015  0.86759696  0.29018884     0.35100
H192        H  0.08719347  0.91492758  0.31680823     0.40200
H193        H  0.30378662  0.90329369  0.28918875     0.39800
H194        H  0.29920981  0.94808591  0.31752852     0.34700
C195        C  0.24970759  0.93460144  0.12066935    -0.27000
C196        C  0.22982709  0.93500209  0.15321151    -0.15100
C197        C  0.18474157  0.94817747  0.15856752     0.35600
C198        C  0.16017528  0.95868967  0.13119253    -0.26500
C199        C  0.17958683  0.95505167  0.09869477    -0.15700
C200        C  0.22510528  0.94447601  0.09342734     0.36600
N201        N  0.24597763  0.94326325  0.06034089    -0.89900
H202        H  0.28443983  0.92510859  0.11646493     0.17700
H203        H  0.12515223  0.96690206  0.13511668     0.17700
N204        N  0.16339535  0.94803746  0.19147168    -0.89000
H205        H  0.27962323  0.93483443  0.06066247     0.35100
H206        H  0.24449691  0.97937224  0.05043325     0.40200
H207        H  0.16273020  0.91102606  0.20000071     0.39800
H208        H  0.13032875  0.95890292  0.19116039     0.34700
C209        C  0.44574298  0.98328005  0.29182422    -0.27000
C210        C  0.40398937  0.00530699  0.29802382    -0.15100
C211        C  0.38773797  0.01316939  0.33152993     0.35600
C212        C  0.41515877  0.00344346  0.35701487    -0.26500
C213        C  0.45755603  0.98352850  0.35060199    -0.15700
C214        C  0.47215615  0.97176843  0.31763802     0.36600
N215        N  0.01028850  0.94881017  0.30999799    -0.89900
H216        H  0.45903709  0.97691186  0.26662342     0.17700
H217        H  0.40298526  0.01134172  0.38230674     0.17700
N218        N  0.34346852  0.02949328  0.34107994    -0.89000
H219        H  0.01170898  0.91493381  0.32280788     0.35100
H220        H  0.03427980  0.97379343  0.31771453     0.40200
H221        H  0.32327378  0.02950116  0.32142431     0.39800
H222        H  0.34548195  0.06604933  0.35009174     0.34700
C223        C  0.42006443  0.98011366  0.16232541    -0.27000
C224        C  0.43036679  0.02264637  0.18039074    -0.15100
C225        C  0.46495631  0.05490756  0.16804147     0.35600
C226        C  0.48665614  0.04597908  0.13679878    -0.26500
C227        C  0.47451929  0.00492945  0.11756279    -0.15700
C228        C  0.44207069  0.97031972  0.13135656     0.36600
N229        N  0.43118762  0.92547863  0.11396857    -0.89900
H230        H  0.39344857  0.95532362  0.17174582     0.17700
H231        H  0.51225342  0.07215790  0.12729164     0.17700
N232        N  0.47777999  0.09703956  0.18709302    -0.89000
H233        H  0.40568731  0.90522629  0.12710072     0.35100
H234        H  0.45911026  0.90265930  0.11296107     0.40200
H235        H  0.51133282  0.09345164  0.19111752     0.39800
H236        H  0.47434438  0.12949277  0.17306688     0.34700
C237        C  0.33389748  0.72025069  0.17974980    -0.27000
C238        C  0.33691377  0.69788998  0.21088914    -0.15100
C239        C  0.34125437  0.72981230  0.23833596     0.35600
C240        C  0.33622498  0.78179274  0.23490147    -0.26500
C241        C  0.32497849  0.80319844  0.20494080    -0.15700
C242        C  0.33006193  0.77268310  0.17624793     0.36600
N243        N  0.33327967  0.79457757  0.14376410    -0.89900
H244        H  0.33413360  0.69670428  0.15801696     0.17700
H245        H  0.33656615  0.80494148  0.25681059     0.17700
N246        N  0.34775238  0.70974127  0.27037390    -0.89000
H247        H  0.33803293  0.76702947  0.12559618     0.35100
H248        H  0.36158554  0.81763806  0.14180335     0.40200
H249        H  0.32114806  0.72058239  0.28671498     0.39800
H250        H  0.37675796  0.72571900  0.27841224     0.34700
C251        C  0.27884058  0.15039487  0.23511203    -0.27000
C252        C  0.32330882  0.13842521  0.23978239    -0.15100
C253        C  0.35262071  0.17825310  0.24687649     0.35600
C254        C  0.33742823  0.22736105  0.24975535    -0.26500
C255        C  0.29346119  0.23932616  0.24505119    -0.15700
C256        C  0.26380418  0.20048816  0.23721633     0.36600
N257        N  0.21834466  0.21159133  0.23243141    -0.89900
H258        H  0.25549172  0.12132088  0.22959359     0.17700
H259        H  0.36089014  0.25678390  0.25502909     0.17700
N260        N  0.39847899  0.16906166  0.25107376    -0.89000
H261        H  0.20022338  0.17856346  0.22924907     0.35100
H262        H  0.21792846  0.23153791  0.21024680     0.40200
H263        H  0.40539774  0.18152483  0.27457185     0.39800
H264        H  0.41773919  0.19032385  0.23350132     0.34700
C265        C  0.38883359  0.46841974  0.39233642    -0.27000
C266        C  0.40728217  0.47595718  0.35985475    -0.15100
C267        C  0.45223129  0.49024759  0.35437244     0.35600
C268        C  0.47724302  0.49929343  0.38150249    -0.26500
C269        C  0.45806569  0.49562003  0.41416295    -0.15700
C270        C  0.41350586  0.47895711  0.41966430     0.36600
N271        N  0.39250679  0.47592185  0.45266093    -0.89900
H272        H  0.35423106  0.45775587  0.39640767     0.17700
H273        H  0.01120440  0.51054017  0.37686160     0.17700
N274        N  0.47190850  0.49685372  0.32118352    -0.89000
H275        H  0.35998346  0.46224654  0.45236261     0.35100
H276        H  0.39022569  0.51239590  0.46191665     0.40200
H277        H  0.47166554  0.46193239  0.30957559     0.39800
H278        H  0.00556904  0.50192082  0.32126170     0.34700
C279        C  0.44833419  0.48300738  0.05007195    -0.27000
C280        C  0.43803783  0.52510688  0.03179472    -0.15100
C281        C  0.40479247  0.55788023  0.04456470     0.38200
C282        C  0.38390151  0.54879580  0.07621729    -0.26500
C283        C  0.39545286  0.50746244  0.09530500    -0.15700
C284        C  0.42775447  0.47363917  0.08134734     0.36600
N285        N  0.44085870  0.42932675  0.09788696    -0.89900
H286        H  0.96954297  0.45407925  0.03890809     0.17700
H287        H  0.35890359  0.57460532  0.08609239     0.17700
N288        N  0.39270085  0.60035428  0.02547615    -0.89000
H289        H  0.90985562  0.40355965  0.10300219     0.35100
H290        H  0.45614801  0.43935055  0.11918484     0.40200
H291        H  0.38024229  0.58787940  0.50365336     0.39800
H292        H  0.36769269  0.62073049  0.03842711     0.34700
C293        C  0.02671855  0.72432109  0.44831869    -0.27000
C294        C  0.06865805  0.73998313  0.45681056    -0.15100
C295        C  0.09834857  0.70373748  0.46725764     0.35600
C296        C  0.08499154  0.65271443  0.46949439    -0.26500
C297        C  0.04203374  0.63727320  0.46224394    -0.15700
C298        C  0.01287229  0.67430466  0.45160684     0.36600
N299        N  0.46957323  0.65953801  0.44574492    -0.89900
H300        H  0.50488379  0.74947747  0.44223006     0.17700
H301        H  0.10796193  0.62583776  0.47796442     0.17700
N302        N  0.14172408  0.71889508  0.47589702    -0.89000
H303        H  0.46530009  0.66993389  0.42132337     0.35100
H304        H  0.44794710  0.68064123  0.46137533     0.40200
H305        H  0.15905984  0.73314392  0.45451856     0.39800
H306        H  0.15941604  0.68798283  0.48335014     0.34700
C307        C  0.19346633  0.40458432  0.43560367    -0.27000
C308        C  0.14863933  0.41694001  0.44044280    -0.15100
C309        C  0.12630058  0.43625804  0.41408534     0.35600
C310        C  0.14967907  0.44423011  0.38342734    -0.26500
C311        C  0.19443596  0.43127250  0.37809280    -0.15700
C312        C  0.21677208  0.41143619  0.40452464     0.36600
N313        N  0.26284414  0.39869606  0.39984209    -0.89900
H314        H  0.21001314  0.38895963  0.45598220     0.17700
H315        H  0.13228075  0.45887517  0.36317259     0.17700
N316        N  0.07959390  0.44610654  0.41816629    -0.89000
H317        H  0.27403267  0.38441047  0.42170049     0.35100
H318        H  0.28061200  0.43194912  0.39458541     0.40200
H319        H  0.06297599  0.41173476  0.42194813     0.39800
H320        H  0.06862654  0.46120066  0.39650598     0.34700
C321        C  0.13851892  0.45856054  0.11659699    -0.27000
C322        C  0.18473761  0.46335265  0.11122298    -0.15100
C323        C  0.20483115  0.46141347  0.07866517     0.35600
C324        C  0.17849805  0.45051764  0.05236319    -0.26500
C325        C  0.13262085  0.44249351  0.05809160    -0.15700
C326        C  0.11207018  0.44941748  0.09034156     0.36600
N327        N  0.06467971  0.44767501  0.09728902    -0.89900
H328        H  0.12290777  0.46130970  0.14150568     0.17700
H329        H  0.19410848  0.44544320  0.02763900     0.17700
N330        N  0.25212973  0.46707403  0.07276681    -0.89000
H331        H  0.05665067  0.41548924  0.11135642     0.35100
H332        H  0.04807169  0.44532108  0.07570673     0.40200
H333        H  0.26042880  0.50393649  0.07869484     0.39800
H334        H  0.26179166  0.46266916  0.04762840     0.34700
C335        C  0.04384298  0.27199871  0.03701610    -0.27000
C336        C  0.04262566  0.30218808  0.00836056    -0.15100
C337        C  0.03015268  0.28197734  0.47703650     0.35600
C338        C  0.02448676  0.22955976  0.47570457    -0.26500
C339        C  0.03106346  0.19589991  0.00564150    -0.15700
C340        C  0.03876306  0.21948515  0.03578400     0.36600
N341        N  0.04254014  0.19038184  0.06515182    -0.89900
H342        H  0.05052022  0.28792995  0.06051036     0.17700
H343        H  0.01722891  0.21263456  0.45245393     0.17700
N344        N  0.02485968  0.31179966  0.44802341    -0.89000
H345        H  0.01838857  0.20242223  0.08315005     0.35100
H346        H  0.07368319  0.19778421  0.07372778     0.40200
H347        H  0.99721247  0.33437221  0.45310834     0.39800
H348        H  0.01745163  0.28914209  0.42814473     0.34700
C349        C  0.06637910  0.35729570  0.50444858     0.85800
C350        C  0.08918421  0.37534141  0.53502515    -0.54400
C351        C  0.10999786  0.42081728  0.53107714     0.08700
C352        C  0.10426334  0.44263763  0.99727870     0.19700
C353        C  0.03560463  0.40106380  0.49674959    -0.55200
C354        C  0.05667760  0.44718452  0.49235249     0.08800
C355        C  0.10075401  0.35726488  0.97722149    -0.54700
C356        C  0.12073282  0.40281066  0.97223552     0.09400
H357        H  0.09074762  0.35449687  0.55779578     0.13900
H358        H  0.12287100  0.47842606  0.99376520    -0.00300
H359        H  0.00052367  0.39494058  0.49468688     0.14200
H360        H  0.10804105  0.32609304  0.96057642     0.14000
C361        C  0.02162365  0.58119272  0.96950540     0.85800
C362        C  0.48711128  0.58193382  0.99704027    -0.54400
C363        C  0.46634520  0.53661988  0.00134186     0.08700
C364        C  0.98225593  0.49359629  0.97644693     0.19700
C365        C  0.05227085  0.53865302  0.97994375    -0.55200
C366        C  0.03148103  0.49221691  0.98378323     0.08800
C367        C  0.00332967  0.56114009  0.93799031    -0.54700
C368        C  0.48354437  0.51855855  0.94249180     0.09400
H369        H  0.48057629  0.61156404  0.51201955     0.13900
H370        H  0.46701541  0.45981203  0.98048282    -0.00300
H371        H  0.08676291  0.54477244  0.98386189     0.14200
H372        H  0.50710553  0.58458469  0.91577374     0.14000
Zr373      Zr  0.28679087  0.53125300  0.68536491     2.17500
O374        O  0.23723103  0.59143674  0.66243487    -0.52000
O375        O  0.33993762  0.52803719  0.63718703    -0.75200
O376        O  0.31322838  0.61834170  0.69102472    -0.82000
O377        O  0.21097659  0.42615835  0.65978875    -0.83800
O378        O  0.34642296  0.62372615  0.73923448    -0.79400
O379        O  0.23935893  0.50245526  0.64314210    -0.91000
O380        O  0.38959583  0.46821769  0.64701635    -0.77000
O381        O  0.35664919  0.52078775  0.70787747    -0.86500
O382        O  0.30457619  0.44479543  0.67864795    -0.86200
O383        O  0.27417488  0.55349061  0.74274960    -0.72900
O384        O  0.22769126  0.48352023  0.71433085    -0.85000
Zr385      Zr  0.30541804  0.40830074  0.78824174     2.26400
Zr386      Zr  0.34440755  0.54145257  0.76515058     2.06300
Zr387      Zr  0.24666818  0.39721179  0.70814406     2.10000
Zr388      Zr  0.37378045  0.43444478  0.70169651     1.78800
O389        O  0.17035708  0.36914998  0.72125659    -0.93900
O390        O  0.44991604  0.46552142  0.70124671    -0.41700
O391        O  0.31643877  0.38694132  0.73099320    -0.78300
O392        O  0.36483564  0.45532591  0.75901211    -0.97000
O393        O  0.28661431  0.49416288  0.79497451    -0.90300
O394        O  0.23496179  0.41701919  0.76585719    -0.93100
C395        C  0.37360952  0.50091277  0.62837300     1.00600
C396        C  0.21452336  0.46366681  0.63976069     1.13600
C397        C  0.33256396  0.64346018  0.71308871     1.04300
O398        O  0.42135993  0.56996540  0.75783256    -0.95300
O399        O  0.38184180  0.51619854  0.81319804    -0.91000
O400        O  0.35788963  0.43735532  0.82745382    -0.84200
C401        C  0.38133864  0.47700392  0.83167189     1.11000
O402        O  0.16499608  0.56419182  0.75346351    -0.97300
Zr403      Zr  0.21737420  0.50352910  0.77184819     1.88900
O404        O  0.25066190  0.40878436  0.83563986    -0.73900
O405        O  0.32367817  0.60001220  0.80944705    -0.53200
O406        O  0.20763777  0.57488197  0.80891119    -0.97800
O407        O  0.14271804  0.46891361  0.76954143    -0.55100
O408        O  0.20316147  0.47169517  0.82752282    -0.74400
C409        C  0.21817496  0.43701129  0.84533859     0.97900
O410        O  0.33637777  0.34019896  0.81913406    -0.63200
O411        O  0.25618981  0.33506137  0.66426942    -0.58000
O412        O  0.29914763  0.32027978  0.77186971    -0.94700
O413        O  0.26040388  0.31211660  0.72629941    -0.93200
O414        O  0.37648217  0.36019337  0.66687754    -0.93500
O415        O  0.42609578  0.37387381  0.72031441    -0.92300
C416        C  0.28229442  0.29382016  0.74930561     1.16800
H417        H  0.30657407  0.43537838  0.65558996     0.32700
H418        H  0.39283676  0.44905339  0.76804485     0.43600
H419        H  0.21275611  0.39529323  0.77694965     0.37100
H420        H  0.26530037  0.58804848  0.74483428     0.33600
H421        H  0.46537868  0.45053396  0.68129756     0.25400
H422        H  0.34974991  0.62267338  0.81025855     0.31300
H423        H  0.22812910  0.56893279  0.82637566     0.37200
H424        H  0.40712236  0.35987880  0.65632374     0.31700
H425        H  0.22577388  0.32683740  0.65836656     0.30500
H426        H  0.17085332  0.33257012  0.71724950     0.32200
H427        H  0.14144055  0.43894257  0.78403682     0.31200
H428        H  0.40954536  0.35614662  0.73899118     0.35200
H429        H  0.36903455  0.34445668  0.81597048     0.27900
H430        H  0.25588716  0.61063491  0.64553138     0.32200
H431        H  0.16926566  0.56338103  0.72900688     0.35000
H432        H  0.27013168  0.35337163  0.64480956     0.27600
H433        H  0.32864176  0.34759677  0.84278061     0.40500
H434        H  0.43876746  0.53881370  0.75564021     0.30500
H435        H  0.44820231  0.50161311  0.69584891     0.38200
H436        H  0.14209365  0.45546083  0.74685994     0.30000
H437        H  0.30046895  0.62105334  0.80073543     0.30100
H438        H  0.22968228  0.61566583  0.68038723     0.30300
C439        C  0.34195841  0.08545609  0.73802875     0.85800
C440        C  0.38096706  0.08156153  0.71172856    -0.54400
C441        C  0.40109745  0.03612337  0.71033943     0.08700
C442        C  0.38027445  0.99807864  0.73590384     0.19700
C443        C  0.31097115  0.04096000  0.72963837    -0.55200
C444        C  0.33127339  0.99474162  0.72802334     0.08800
C445        C  0.36056516  0.06988694  0.77036037    -0.54700
C446        C  0.37993809  0.02421307  0.77000501     0.09400
H447        H  0.38926990  0.11110030  0.69372067     0.13900
H448        H  0.39776858  0.96194303  0.73521933    -0.00300
H449        H  0.27693719  0.04582350  0.72426087     0.14200
H450        H  0.36012648  0.09466911  0.79156305     0.14000
C451        C  0.30022987  0.85612021  0.70624149     0.85800
C452        C  0.27595049  0.87289272  0.67632154    -0.54400
C453        C  0.25484654  0.91770520  0.67995286     0.08700
C454        C  0.25884388  0.94165151  0.71428837     0.19700
C455        C  0.33053924  0.90112107  0.71384681    -0.55200
C456        C  0.30908165  0.94641680  0.71820275     0.08800
C457        C  0.26343506  0.85628168  0.73457565    -0.54700
C458        C  0.24276969  0.90076542  0.73934407     0.09400
H459        H  0.27195519  0.85023451  0.65472772     0.13900
H460        H  0.24021742  0.97680600  0.71797643    -0.00300
H461        H  0.36562561  0.89618103  0.71617555     0.14200
H462        H  0.25646159  0.82488209  0.75138487     0.14000
Zr463      Zr  0.08094044  0.03072488  0.52450439     2.17500
O464        O  0.13023711  0.09138522  0.54836654    -0.52000
O465        O  0.02980998  0.02688771  0.57371073    -0.75200
O466        O  0.05542258  0.11744221  0.51919123    -0.82000
O467        O  0.14959620  0.92109991  0.55104345    -0.83800
O468        O  0.02193124  0.12242772  0.97371340    -0.79400
O469        O  0.12960108  0.00058100  0.56550906    -0.91000
O470        O  0.47431154  0.96438450  0.56406989    -0.77000
O471        O  0.01067749  0.02364768  0.50187802    -0.86500
O472        O  0.05809651  0.94529720  0.53149313    -0.86200
O473        O  0.09416510  0.05141202  0.96861210    -0.72900
O474        O  0.13798673  0.97952614  0.99615902    -0.85000
Zr475      Zr  0.05648011  0.90834455  0.92272190     2.26400
Zr476      Zr  0.02369185  0.04184940  0.94612327     2.06300
Zr477      Zr  0.11310314  0.89572403  0.50212915     2.10000
Zr478      Zr  0.49002292  0.93172834  0.50888932     1.78800
O479        O  0.19042206  0.86460399  0.98835525    -0.93900
O480        O  0.41470505  0.96329256  0.50938737    -0.41700
O481        O  0.04471874  0.88566730  0.97993026    -0.78300
O482        O  0.50212407  0.95752688  0.95133523    -0.97000
O483        O  0.07906386  0.99370190  0.91566123    -0.90300
O484        O  0.12734966  0.91507246  0.94479192    -0.93100
C485        C  0.49229602  0.99602209  0.58280943     1.00600
C486        C  0.15074169  0.95982866  0.56978705     1.13600
C487        C  0.03541575  0.14337855  0.49809805     1.04300
O488        O  0.45087116  0.07300977  0.94976489    -0.95300
O489        O  0.48916067  0.02082036  0.89667059    -0.91000
O490        O  0.50793709  0.94091927  0.88309164    -0.84200
C491        C  0.48692684  0.98173895  0.87854304     1.11000
O492        O  0.20187106  0.06329394  0.95618767    -0.97300
Zr493      Zr  0.14874698  0.00117686  0.93870061     1.88900
O494        O  0.11276357  0.90634154  0.87623490    -0.73900
O495        O  0.04965476  0.10490589  0.90530897    -0.53200
O496        O  0.15646581  0.07121308  0.89987506    -0.97800
O497        O  0.22294578  0.96683652  0.94019327    -0.55100
O498        O  0.16420056  0.96656617  0.88415494    -0.74400
C499        C  0.14769133  0.93201195  0.86678125     0.97900
O500        O  0.52758259  0.84342144  0.89026013    -0.63200
O501        O  0.09361763  0.83332768  0.54507574    -0.58000
O502        O  0.05942730  0.81967457  0.93728618    -0.94700
O503        O  0.09913501  0.81003149  0.98213766    -0.93200
O504        O  0.48209418  0.85664800  0.54324450    -0.93500
O505        O  0.43792440  0.87202125  0.48735951    -0.92300
C506        C  0.07656628  0.79246254  0.95911910     1.16800
H507        H  0.05600219  0.93564943  0.55453277     0.32700
H508        H  0.47407021  0.95245802  0.94198213     0.43600
H509        H  0.14864658  0.89290206  0.93363819     0.37100
H510        H  0.10400685  0.08597977  0.96706051     0.33600
H511        H  0.39854659  0.94699724  0.52881172     0.25400
H512        H  0.06467915  0.08573443  0.88690558     0.31300
H513        H  0.14261015  0.09994952  0.91189926     0.37200
H514        H  0.45207410  0.85891412  0.55473687     0.31700
H515        H  0.12211578  0.82428325  0.55386346     0.30500
H516        H  0.20762543  0.89282877  0.49736536     0.32200
H517        H  0.22235894  0.93500785  0.92774529     0.31200
H518        H  0.44444950  0.86841004  0.96882601     0.35200
H519        H  0.49502098  0.84675553  0.89430067     0.27900
H520        H  0.11120730  0.11022899  0.56487792     0.32200
H521        H  0.22525357  0.06597876  0.93773442     0.35000
H522        H  0.07737605  0.85165175  0.56332116     0.27600
H523        H  0.53437617  0.85250997  0.86670646     0.40500
H524        H  0.44944373  0.09689715  0.93115472     0.30500
H525        H  0.41718890  0.99896924  0.51569824     0.38200
H526        H  0.22487430  0.95645062  0.96348644     0.30000
H527        H  0.02233597  0.11739650  0.89629567     0.30100
H528        H  0.13872460  0.11581502  0.53049629     0.30300
C529        C  0.17432573  0.89201506  0.77679847    -0.27000
C530        C  0.21758822  0.91078446  0.77110469    -0.15100
C531        C  0.23914074  0.93187093  0.79736093     0.35600
C532        C  0.21524042  0.93916696  0.82790424    -0.26500
C533        C  0.17118656  0.92191973  0.83379495    -0.15700
C534        C  0.15120799  0.89612694  0.80812721     0.36600
N535        N  0.10796048  0.87370699  0.81385274    -0.89900
H536        H  0.15904762  0.87291869  0.75695828     0.17700
H537        H  0.23184466  0.95693594  0.84760528     0.17700
N538        N  0.28579419  0.94349079  0.79344595    -0.89000
H539        H  0.09851550  0.85564638  0.79260765     0.35100
H540        H  0.08607712  0.90302589  0.81834013     0.40200
H541        H  0.30251887  0.91002644  0.78827654     0.39800
H542        H  0.29677912  0.95562471  0.81586225     0.34700
C543        C  0.24814971  0.93239817  0.61998442    -0.27000
C544        C  0.22953151  0.93780556  0.65264659    -0.15100
C545        C  0.18592771  0.95630336  0.65792435     0.35600
C546        C  0.16135933  0.96636730  0.63040463    -0.26500
C547        C  0.17909472  0.95679895  0.59796974    -0.15700
C548        C  0.22332056  0.94090475  0.59275002     0.36600
N549        N  0.24260320  0.93255798  0.55970823    -0.89900
H550        H  0.28196143  0.91952137  0.61569351     0.17700
H551        H  0.12739942  0.97885685  0.63434159     0.17700
N552        N  0.16590558  0.96242969  0.69095240    -0.89000
H553        H  0.27529257  0.92035363  0.56008243     0.35100
H554        H  0.24406015  0.96704618  0.54735395     0.40200
H555        H  0.16240579  0.92685325  0.70176657     0.39800
H556        H  0.13392200  0.97670793  0.69048098     0.34700
C557        C  0.44398583  0.98246810  0.79270436    -0.27000
C558        C  0.40265089  0.00529477  0.79895344    -0.15100
C559        C  0.38714024  0.01468742  0.83248993     0.35600
C560        C  0.41490269  0.00507473  0.85782407    -0.26500
C561        C  0.45711031  0.98467081  0.85119886    -0.15700
C562        C  0.47097291  0.97199431  0.81828253     0.36600
N563        N  0.01349113  0.94813553  0.81039943    -0.89900
H564        H  0.45694259  0.97540978  0.76751443     0.17700
H565        H  0.40336264  0.01396658  0.88309765     0.17700
N566        N  0.34356228  0.03304093  0.84224407    -0.89000
H567        H  0.01291162  0.91350775  0.82250300     0.35100
H568        H  0.03796457  0.97121445  0.81944694     0.40200
H569        H  0.32297647  0.03350101  0.82284799     0.39800
H570        H  0.34695215  0.06973367  0.85076097     0.34700
C571        C  0.41783220  0.97968457  0.66266934    -0.27000
C572        C  0.42982038  0.02173566  0.68064704    -0.15100
C573        C  0.46498654  0.05274446  0.66775804     0.35600
C574        C  0.48521654  0.04349124  0.63607379    -0.26500
C575        C  0.47156447  0.00285801  0.61704400    -0.15700
C576        C  0.43861338  0.96928979  0.63133955     0.36600
N577        N  0.42602288  0.92488036  0.61416819    -0.89900
H578        H  0.39088764  0.95572574  0.67246213     0.17700
H579        H  0.51129406  0.06883084  0.62624153     0.17700
N580        N  0.48021992  0.09366336  0.68684155    -0.89000
H581        H  0.40034649  0.90548658  0.62770210     0.35100
H582        H  0.45330568  0.90107682  0.61274617     0.40200
H583        H  0.51383980  0.08828344  0.68997157     0.39800
H584        H  0.47743870  0.12666456  0.67325012     0.34700
C585        C  0.33290606  0.72208823  0.67843116    -0.27000
C586        C  0.33645164  0.69935378  0.70940856    -0.15100
C587        C  0.34056751  0.73100595  0.73702200     0.35600
C588        C  0.33471160  0.78288918  0.73400132    -0.26500
C589        C  0.32334080  0.80460992  0.70420567    -0.15700
C590        C  0.32866210  0.77456155  0.67528856     0.36600
N591        N  0.33193632  0.79701961  0.64296458    -0.89900
H592        H  0.33326865  0.69884526  0.65655034     0.17700
H593        H  0.33491362  0.80572191  0.75606072     0.17700
N594        N  0.34789199  0.71069916  0.76883798    -0.89000
H595        H  0.33680963  0.76977990  0.62459898     0.35100
H596        H  0.36020607  0.82012674  0.64122611     0.40200
H597        H  0.32133395  0.72077125  0.78546151     0.39800
H598        H  0.37679234  0.72715186  0.77671699     0.34700
C599        C  0.27940699  0.15123786  0.73678662    -0.27000
C600        C  0.32407911  0.13926375  0.74073066    -0.15100
C601        C  0.35325943  0.17883639  0.74854138     0.35600
C602        C  0.33789213  0.22779742  0.75227852    -0.26500
C603        C  0.29392357  0.23986503  0.74766956    -0.15700
C604        C  0.26421326  0.20117637  0.73972157     0.36600
N605        N  0.21853804  0.21224213  0.73570595    -0.89900
H606        H  0.25594618  0.12229694  0.73127469     0.17700
H607        H  0.36127477  0.25711190  0.75791617     0.17700
N608        N  0.39910377  0.16952466  0.75270334    -0.89000
H609        H  0.20038588  0.17922714  0.73254017     0.35100
H610        H  0.21747240  0.23262616  0.71375076     0.40200
H611        H  0.40583950  0.18101187  0.77645390     0.39800
H612        H  0.41839012  0.19155851  0.73558909     0.34700
C613        C  0.39134068  0.46812750  0.89189752    -0.27000
C614        C  0.40987024  0.47820002  0.85970090    -0.15100
C615        C  0.45450304  0.49408926  0.85489703     0.35600
C616        C  0.47884936  0.50255928  0.88244120    -0.26500
C617        C  0.45927944  0.49727770  0.91490746    -0.15700
C618        C  0.41521207  0.47862021  0.91968931     0.36600
N619        N  0.39376048  0.47355714  0.95243730    -0.89900
H620        H  0.35704819  0.45572244  0.89544517     0.17700
H621        H  0.01169466  0.51225687  0.87748759     0.17700
N622        N  0.47456276  0.50288312  0.82202795    -0.89000
H623        H  0.36163574  0.45891772  0.95154458     0.35100
H624        H  0.39035084  0.50952853  0.96238209     0.40200
H625        H  0.47552412  0.46855496  0.80965528     0.39800
H626        H  0.00615862  0.51034604  0.82163655     0.34700
C627        C  0.44655567  0.48102308  0.54860817    -0.27000
C628        C  0.43755632  0.52390872  0.53060999    -0.15100
C629        C  0.40542665  0.55778161  0.54374055     0.38200
C630        C  0.38478532  0.54924311  0.57555045    -0.26500
C631        C  0.39533561  0.50728957  0.59442078    -0.15700
C632        C  0.42606299  0.47209971  0.57998600     0.36600
N633        N  0.43742731  0.42668224  0.59607281    -0.89900
H634        H  0.97174711  0.45666838  0.53791935     0.17700
H635        H  0.36082969  0.57599631  0.58574819     0.17700
N636        N  0.39422328  0.60084970  0.52486173    -0.89000
H637        H  0.91057084  0.40622918  0.60144655     0.35100
H638        H  0.45369279  0.43525361  0.61718704     0.40200
H639        H  0.37934651  0.58670971  0.00419309     0.39800
H640        H  0.36992921  0.62196364  0.53802958     0.34700
C641        C  0.02450090  0.72236248  0.95028404    -0.27000
C642        C  0.06630088  0.73780499  0.95925281    -0.15100
C643        C  0.09515421  0.70156631  0.97084505     0.35600
C644        C  0.08150269  0.65071097  0.97310006    -0.26500
C645        C  0.03899254  0.63533561  0.96485253    -0.15700
C646        C  0.01030356  0.67242523  0.95364287     0.36600
N647        N  0.46971155  0.66280885  0.94755860    -0.89900
H648        H  0.50667282  0.75179610  0.94165766     0.17700
H649        H  0.10396253  0.62390754  0.98229746     0.17700
N650        N  0.13801698  0.71655380  0.98064118    -0.89000
H651        H  0.46509667  0.67249908  0.92307072     0.35100
H652        H  0.44875940  0.68488590  0.96307180     0.40200
H653        H  0.15653885  0.73017520  0.95959393     0.39800
H654        H  0.15500843  0.68568933  0.98898586     0.34700
C655        C  0.18988122  0.39526957  0.93512505    -0.27000
C656        C  0.14716658  0.41461804  0.94090497    -0.15100
C657        C  0.12849250  0.44195504  0.91580504     0.35600
C658        C  0.15285727  0.44937022  0.88538252    -0.26500
C659        C  0.19541878  0.42933087  0.87895082    -0.15700
C660        C  0.21461354  0.40290514  0.90455440     0.36600
N661        N  0.25905843  0.38437529  0.89972027    -0.89900
H662        H  0.20391396  0.37419306  0.95458000     0.17700
H663        H  0.13763994  0.46973817  0.86617454     0.17700
N664        N  0.08417685  0.46065317  0.92075353    -0.89000
H665        H  0.26774354  0.36542604  0.92083267     0.35100
H666        H  0.28042104  0.41544550  0.89675701     0.40200
H667        H  0.06246225  0.42978459  0.92236740     0.39800
H668        H  0.07615188  0.48171212  0.90035534     0.34700
C669        C  0.14157867  0.45909881  0.61593514    -0.27000
C670        C  0.18793772  0.46129333  0.61075743    -0.15100
C671        C  0.20821524  0.45669174  0.57838266     0.35600
C672        C  0.18158808  0.44720699  0.55201104    -0.26500
C673        C  0.13532564  0.44250629  0.55753903    -0.15700
C674        C  0.11496604  0.45072344  0.58967127     0.36600
N675        N  0.06756077  0.45097529  0.59651071    -0.89900
H676        H  0.12592900  0.46338853  0.64072233     0.17700
H677        H  0.19709718  0.44056913  0.52742838     0.17700
N678        N  0.25576578  0.45807274  0.57282137    -0.89000
H679        H  0.05848624  0.41919506  0.61070592     0.35100
H680        H  0.05095576  0.44907982  0.57491037     0.40200
H681        H  0.26656725  0.49428105  0.57822279     0.39800
H682        H  0.26542770  0.45200453  0.54784354     0.34700
C683        C  0.04403618  0.27427477  0.53481809    -0.27000
C684        C  0.04445619  0.30454576  0.50613253    -0.15100
C685        C  0.02739052  0.27913741  0.97977508     0.35600
C686        C  0.02259050  0.22657884  0.97859005    -0.26500
C687        C  0.03124244  0.19873780  0.50303345    -0.15700
C688        C  0.03777989  0.22199174  0.53344637     0.36600
N689        N  0.03878002  0.19271142  0.56303009    -0.89900
H690        H  0.04998511  0.29000886  0.55851759     0.17700
H691        H  0.01450401  0.20949094  0.95558959     0.17700
N692        N  0.02019165  0.30874203  0.95102590    -0.89000
H693        H  0.01392666  0.20564224  0.58017304     0.35100
H694        H  0.06937965  0.19894568  0.57276644     0.40200
H695        H  0.99228902  0.33063331  0.95684979     0.39800
H696        H  0.01225414  0.28586028  0.93139666     0.34700
C697        C  0.56887846  0.35656078  0.00390367     0.85800
C698        C  0.59202531  0.37402051  0.03442191    -0.54400
C699        C  0.61190469  0.41999808  0.03097901     0.08700
C700        C  0.60607910  0.44167464  0.49777037     0.19700
C701        C  0.53736558  0.40013216  0.99697707    -0.55200
C702        C  0.55781906  0.44668322  0.99313310     0.08800
C703        C  0.60281292  0.35613250  0.47804984    -0.54700
C704        C  0.62313583  0.40143828  0.47328860     0.09400
H705        H  0.59464646  0.35233773  0.05673773     0.13900
H706        H  0.62510342  0.47723169  0.49446628    -0.00300
H707        H  0.50226888  0.39367335  0.99507361     0.14200
H708        H  0.61001784  0.32502464  0.46132112     0.14000
C709        C  0.52521886  0.58079230  0.46837782     0.85800
C710        C  0.98669360  0.58203328  0.49493194    -0.54400
C711        C  0.96591464  0.53676573  0.49943417     0.08700
C712        C  0.48447263  0.49409030  0.47632053     0.19700
C713        C  0.55551485  0.53774781  0.47846474    -0.55200
C714        C  0.53406769  0.49173946  0.48281510     0.08800
C715        C  0.50559921  0.56083389  0.43731840    -0.54700
C716        C  0.98288526  0.51838336  0.44076957     0.09400
H717        H  0.97537698  0.61060080  0.01261859     0.13900
H718        H  0.96634432  0.46007892  0.47868328    -0.00300
H719        H  0.59020696  0.54335806  0.48194537     0.14200
H720        H  0.00624105  0.58379217  0.41341562     0.14000
Zr721      Zr  0.78519416  0.53065105  0.18616191     2.17500
O722        O  0.73910441  0.59199999  0.16078988    -0.52000
O723        O  0.83801106  0.52602475  0.13771992    -0.75200
O724        O  0.81257922  0.61719106  0.19223265    -0.82000
O725        O  0.70943906  0.42627098  0.16015800    -0.83800
O726        O  0.84336197  0.62336132  0.24132008    -0.79400
O727        O  0.73576960  0.50404500  0.14515798    -0.91000
O728        O  0.88663568  0.46486328  0.14680854    -0.77000
O729        O  0.85459713  0.52035500  0.20894071    -0.86500
O730        O  0.80284317  0.44416834  0.17916628    -0.86200
O731        O  0.77160005  0.55283703  0.24341948    -0.72900
O732        O  0.72547214  0.48323810  0.21476112    -0.85000
Zr733      Zr  0.80274226  0.40765407  0.28856305     2.26400
Zr734      Zr  0.84151140  0.54065501  0.26620511     2.06300
Zr735      Zr  0.74448728  0.39699103  0.20859089     2.10000
Zr736      Zr  0.87211725  0.43426330  0.20239219     1.78800
O737        O  0.66777114  0.37346607  0.22468861    -0.93900
O738        O  0.94569114  0.47302783  0.20088406    -0.41700
O739        O  0.81435747  0.38677059  0.23130030    -0.78300
O740        O  0.86247907  0.45464465  0.25983582    -0.97000
O741        O  0.78352717  0.49330674  0.29568295    -0.90300
O742        O  0.73246664  0.41656675  0.26615826    -0.93100
C743        C  0.87092683  0.49805195  0.12840398     1.00600
C744        C  0.71194628  0.46481722  0.14106299     1.13600
C745        C  0.83097941  0.64263219  0.21459251     1.04300
O746        O  0.91828555  0.56947095  0.25791587    -0.95300
O747        O  0.87862545  0.51505620  0.31412212    -0.91000
O748        O  0.85423251  0.43635189  0.32833547    -0.84200
C749        C  0.87777427  0.47585025  0.33254536     1.11000
O750        O  0.66251393  0.56249956  0.25144569    -0.97300
Zr751      Zr  0.71443225  0.50312197  0.27232292     1.88900
O752        O  0.74766159  0.40876907  0.33563295    -0.73900
O753        O  0.82091704  0.59909585  0.31063291    -0.53200
O754        O  0.70799478  0.57689636  0.30754095    -0.97800
O755        O  0.63912580  0.46838945  0.27467508    -0.55100
O756        O  0.69988544  0.47188595  0.32804594    -0.74400
C757        C  0.71516862  0.43691014  0.34544904     0.97900
O758        O  0.83315953  0.33927216  0.31948466    -0.63200
O759        O  0.74640648  0.33292841  0.16566565    -0.58000
O760        O  0.79718537  0.31954590  0.27238455    -0.94700
O761        O  0.76067381  0.31194029  0.22570524    -0.93200
O762        O  0.87786779  0.35820252  0.16933095    -0.93500
O763        O  0.92681632  0.37658981  0.22115047    -0.92300
C764        C  0.78156842  0.29335565  0.24918147     1.16800
H765        H  0.80462487  0.43454794  0.15613600     0.32700
H766        H  0.89036812  0.44832084  0.26906364     0.43600
H767        H  0.71055136  0.39450891  0.27728594     0.37100
H768        H  0.76278097  0.58740861  0.24537467     0.33600
H769        H  0.96295429  0.45643054  0.18234450     0.25400
H770        H  0.84723742  0.62128942  0.31176384     0.31300
H771        H  0.72888247  0.57114404  0.32474913     0.37200
H772        H  0.90812438  0.35950349  0.15808760     0.31700
H773        H  0.71493421  0.32367649  0.16351879     0.30500
H774        H  0.65042686  0.40278908  0.21847565     0.32200
H775        H  0.62281922  0.48624305  0.29313267     0.31200
H776        H  0.90918362  0.35168016  0.23493034     0.35200
H777        H  0.86583777  0.34309695  0.31609179     0.27900
H778        H  0.75925983  0.61004588  0.14422931     0.32200
H779        H  0.64106308  0.57034229  0.27037603     0.35000
H780        H  0.75618230  0.35023802  0.14467234     0.27600
H781        H  0.82578507  0.34690032  0.34314299     0.40500
H782        H  0.93585949  0.53839004  0.25658692     0.30500
H783        H  0.94173651  0.50767625  0.19292026     0.38200
H784        H  0.64128641  0.43369296  0.28300775     0.30000
H785        H  0.79818715  0.62071222  0.30181068     0.30100
H786        H  0.73118286  0.61698393  0.17819355     0.30300
C787        C  0.84020593  0.08466878  0.23827418     0.85800
C788        C  0.87970814  0.08203659  0.21239134    -0.54400
C789        C  0.90031619  0.03697967  0.21056558     0.08700
C790        C  0.87939424  0.99786428  0.23536332     0.19700
C791        C  0.80982269  0.04011572  0.22892950    -0.55200
C792        C  0.83070609  0.99414962  0.22705157     0.08800
C793        C  0.85804608  0.06815034  0.27065161    -0.54700
C794        C  0.87785022  0.02272229  0.26984550     0.09400
H795        H  0.88792108  0.11219707  0.19483056     0.13900
H796        H  0.89719436  0.96195003  0.23432637    -0.00300
H797        H  0.77574392  0.04473377  0.22351871     0.14200
H798        H  0.85676093  0.09219992  0.29221666     0.14000
C799        C  0.80127527  0.85472743  0.20617186     0.85800
C800        C  0.77515628  0.87054602  0.17705449    -0.54400
C801        C  0.75383764  0.91507037  0.18102209     0.08700
C802        C  0.75891470  0.93955859  0.21499573     0.19700
C803        C  0.83136698  0.90050091  0.21265315    -0.55200
C804        C  0.80922979  0.94539750  0.21750248     0.08800
C805        C  0.76597695  0.85463179  0.23547579    -0.54700
C806        C  0.74498988  0.89878683  0.24063274     0.09400
H807        H  0.77049221  0.84788034  0.15559710     0.13900
H808        H  0.73981212  0.97435390  0.21899426    -0.00300
H809        H  0.86671661  0.89628611  0.21403652     0.14200
H810        H  0.76023219  0.82334465  0.25255614     0.14000
Zr811      Zr  0.58207690  0.02915334  0.02571539     2.17500
O812        O  0.63168999  0.08977095  0.04928525    -0.52000
O813        O  0.53021363  0.02539787  0.07456164    -0.75200
O814        O  0.55704748  0.11603282  0.01996613    -0.82000
O815        O  0.65208269  0.92164354  0.05119768    -0.83800
O816        O  0.52351209  0.12182381  0.47264386    -0.79400
O817        O  0.62865373  0.99899404  0.06771932    -0.91000
O818        O  0.97472884  0.96904481  0.06434553    -0.77000
O819        O  0.51237697  0.02156152  0.00242163    -0.86500
O820        O  0.56023867  0.94313849  0.03210449    -0.86200
O821        O  0.59490519  0.05062738  0.46892668    -0.72900
O822        O  0.63863490  0.97892181  0.49664449    -0.85000
Zr823      Zr  0.55837652  0.90769680  0.42236514     2.26400
Zr824      Zr  0.52464463  0.04057308  0.44603545     2.06300
Zr825      Zr  0.61639285  0.89518647  0.00241399     2.10000
Zr826      Zr  0.98945442  0.93403774  0.00972659     1.78800
O827        O  0.69163281  0.86501460  0.48777937    -0.93900
O828        O  0.91438897  0.96585375  0.00894921    -0.41700
O829        O  0.54611305  0.88400237  0.47946313    -0.78300
O830        O  0.99889780  0.95929983  0.45122895    -0.97000
O831        O  0.58074462  0.99315870  0.41573727    -0.90300
O832        O  0.62876474  0.91477711  0.44508250    -0.93100
C833        C  0.99355227  0.99948536  0.08341042     1.00600
C834        C  0.65133155  0.95916284  0.07097931     1.13600
C835        C  0.53811104  0.14211582  0.99835299     1.04300
O836        O  0.94777620  0.07382630  0.44832972    -0.95300
O837        O  0.98577565  0.02140912  0.39642104    -0.91000
O838        O  0.00536762  0.94181765  0.38271084    -0.84200
C839        C  0.98406013  0.98230779  0.37824007     1.11000
O840        O  0.70198972  0.06378210  0.45756353    -0.97300
Zr841      Zr  0.65013845  0.00086298  0.43927110     1.88900
O842        O  0.61612455  0.90536334  0.37714968    -0.73900
O843        O  0.54961558  0.10237197  0.40413133    -0.53200
O844        O  0.65801570  0.06983636  0.39963285    -0.97800
O845        O  0.72470541  0.96756721  0.44120474    -0.55100
O846        O  0.66785871  0.96516186  0.38533178    -0.74400
C847        C  0.65149379  0.93041608  0.36807601     0.97900
O848        O  0.02130611  0.84433867  0.39157078    -0.63200
O849        O  0.60480949  0.83125606  0.04542994    -0.58000
O850        O  0.56285416  0.81911181  0.43668475    -0.94700
O851        O  0.60198627  0.80896625  0.48183265    -0.93200
O852        O  0.98140542  0.86191516  0.04675766    -0.93500
O853        O  0.93783854  0.87081350  0.99166720    -0.92300
C854        C  0.58018134  0.79166409  0.45830297     1.16800
H855        H  0.55779065  0.93299586  0.05507469     0.32700
H856        H  0.97072354  0.95420699  0.44203235     0.43600
H857        H  0.65017394  0.89258724  0.43405090     0.37100
H858        H  0.60476413  0.08519089  0.46743771     0.33600
H859        H  0.89982644  0.95710722  0.03096979     0.25400
H860        H  0.55911160  0.08254295  0.38428060     0.31300
H861        H  0.64261479  0.09831817  0.41086425     0.37200
H862        H  0.95034904  0.86303304  0.05645822     0.31700
H863        H  0.63494979  0.82271121  0.05143344     0.30500
H864        H  0.71076700  0.88986933  0.00107604     0.32200
H865        H  0.74068089  0.97815198  0.42003172     0.31200
H866        H  0.94856396  0.85879341  0.47421178     0.35200
H867        H  0.98890843  0.84852394  0.39619418     0.27900
H868        H  0.61259315  0.11029192  0.06477228     0.32200
H869        H  0.72420380  0.06929052  0.43859456     0.35000
H870        H  0.59106266  0.84880867  0.06503700     0.27600
H871        H  0.02745513  0.85257566  0.36782533     0.40500
H872        H  0.93823140  0.07255695  0.47223097     0.30500
H873        H  0.91796150  0.00275851  0.00942226     0.38200
H874        H  0.72134687  0.93081668  0.43911243     0.30000
H875        H  0.52215798  0.11904013  0.39837794     0.30100
H876        H  0.64161502  0.11272701  0.03087812     0.30300
C877        C  0.67653554  0.89402271  0.27772432    -0.27000
C878        C  0.72099895  0.90857059  0.27276793    -0.15100
C879        C  0.74399048  0.92519350  0.29967778     0.35600
C880        C  0.72051580  0.93214524  0.33047251    -0.26500
C881        C  0.67523048  0.91939608  0.33548283    -0.15700
C882        C  0.65362239  0.89796289  0.30902133     0.36600
N883        N  0.60863659  0.88027158  0.31386208    -0.89900
H884        H  0.66000731  0.87833616  0.25727220     0.17700
H885        H  0.73797616  0.94654324  0.35085867     0.17700
N886        N  0.79119969  0.93358015  0.29587168    -0.89000
H887        H  0.59784880  0.86551344  0.29196700     0.35100
H888        H  0.58952129  0.91163223  0.31947140     0.40200
H889        H  0.80606219  0.89936335  0.28967441     0.39800
H890        H  0.80300046  0.94356078  0.31849906     0.34700
C891        C  0.74787983  0.93076414  0.12129221    -0.27000
C892        C  0.72873965  0.93534378  0.15385346    -0.15100
C893        C  0.68498802  0.95316415  0.15912062     0.35600
C894        C  0.66086100  0.96409246  0.13158600    -0.26500
C895        C  0.67920700  0.95562219  0.09919361    -0.15700
C896        C  0.72343264  0.93975337  0.09401786     0.36600
N897        N  0.74303436  0.93177096  0.06100825    -0.89900
H898        H  0.78176649  0.91807721  0.11710661     0.17700
H899        H  0.62677273  0.97619164  0.13541937     0.17700
N900        N  0.66438792  0.95746052  0.19210902    -0.89000
H901        H  0.77564557  0.91934949  0.06146940     0.35100
H902        H  0.74470980  0.96640018  0.04882969     0.40200
H903        H  0.66129805  0.92133919  0.20212694     0.39800
H904        H  0.63219747  0.97114351  0.19163480     0.34700
C905        C  0.94074369  0.97933942  0.29277425    -0.27000
C906        C  0.89975425  0.00294712  0.29881809    -0.15100
C907        C  0.88421662  0.01308773  0.33221328     0.35600
C908        C  0.91214955  0.00477011  0.35752887    -0.26500
C909        C  0.95433449  0.98442095  0.35099521    -0.15700
C910        C  0.96785267  0.96990665  0.31836139     0.36600
N911        N  0.51448673  0.95024435  0.30943484    -0.89900
H912        H  0.95360238  0.97123405  0.26772221     0.17700
H913        H  0.90071872  0.01445593  0.38269071     0.17700
N914        N  0.84038438  0.03080393  0.34177744    -0.89000
H915        H  0.51472908  0.91539236  0.32121117     0.35100
H916        H  0.53856890  0.97379339  0.31854171     0.40200
H917        H  0.81948694  0.02876909  0.32255654     0.39800
H918        H  0.84306160  0.06815921  0.34917449     0.34700
C919        C  0.91856666  0.98166547  0.16270380    -0.27000
C920        C  0.92950935  0.02389991  0.18084954    -0.15100
C921        C  0.96400941  0.05605799  0.16813031     0.35600
C922        C  0.98505111  0.04713210  0.13663090    -0.26500
C923        C  0.97256323  0.00604056  0.11756550    -0.15700
C924        C  0.93999037  0.97177893  0.13156717     0.36600
N925        N  0.92851280  0.92703239  0.11430059    -0.89900
H926        H  0.89194167  0.95706005  0.17221540     0.17700
H927        H  0.01064290  0.07314350  0.12688392     0.17700
N928        N  0.97760718  0.09791018  0.18711224    -0.89000
H929        H  0.90295950  0.90706148  0.12756838     0.35100
H930        H  0.95625045  0.90391194  0.11318450     0.40200
H931        H  0.01129521  0.09400973  0.19060114     0.39800
H932        H  0.97401509  0.13050914  0.17326486     0.34700
C933        C  0.83107951  0.72002558  0.17909807    -0.27000
C934        C  0.83588365  0.69826867  0.21018892    -0.15100
C935        C  0.84256208  0.73069933  0.23701333     0.35600
C936        C  0.83796397  0.78264585  0.23327029    -0.26500
C937        C  0.82473454  0.80351035  0.20374861    -0.15700
C938        C  0.82751152  0.77237899  0.17526222     0.36600
N939        N  0.82853562  0.79346420  0.14259394    -0.89900
H940        H  0.82959656  0.69608250  0.15766960     0.17700
H941        H  0.84004208  0.80626055  0.25482184     0.17700
N942        N  0.85129996  0.71130219  0.26879657    -0.89000
H943        H  0.83145523  0.76543963  0.12461558     0.35100
H944        H  0.85704900  0.81603454  0.13917217     0.40200
H945        H  0.82602449  0.72294368  0.28604851     0.39800
H946        H  0.88119747  0.72704334  0.27536422     0.34700
C947        C  0.77835089  0.15095420  0.23597784    -0.27000
C948        C  0.82241330  0.13841328  0.24138568    -0.15100
C949        C  0.85139460  0.17751627  0.25037694     0.35600
C950        C  0.83632727  0.22662947  0.25390785    -0.26500
C951        C  0.79301361  0.23932528  0.24769390    -0.15700
C952        C  0.76360732  0.20109606  0.23851008     0.36600
N953        N  0.71865175  0.21292073  0.23263754    -0.89900
H954        H  0.75521627  0.12233672  0.22931324     0.17700
H955        H  0.85951107  0.25557167  0.26050904     0.17700
N956        N  0.89682259  0.16760528  0.25568168    -0.89000
H957        H  0.70031643  0.18016945  0.22906772     0.35100
H958        H  0.71946001  0.23285916  0.21037975     0.40200
H959        H  0.90256201  0.17870516  0.27970494     0.39800
H960        H  0.91703215  0.18956897  0.23910861     0.34700
C961        C  0.88770893  0.47099644  0.39274486    -0.27000
C962        C  0.90648474  0.47673692  0.36023432    -0.15100
C963        C  0.95184168  0.48884786  0.35451474     0.35600
C964        C  0.97680193  0.49903954  0.38144813    -0.26500
C965        C  0.95740286  0.49722208  0.41406454    -0.15700
C966        C  0.91256338  0.48176436  0.41986603     0.36600
N967        N  0.89153263  0.48032197  0.45288871    -0.89900
H968        H  0.85284075  0.46160447  0.39692734     0.17700
H969        H  0.51151477  0.51146296  0.37707884     0.17700
N970        N  0.97202021  0.49190009  0.32126004    -0.89000
H971        H  0.85876700  0.46734676  0.45279354     0.35100
H972        H  0.88991388  0.51716815  0.46151950     0.40200
H973        H  0.97087605  0.45597841  0.31110092     0.39800
H974        H  0.50517936  0.50797993  0.32135559     0.34700
C975        C  0.94396067  0.47928962  0.04845087    -0.27000
C976        C  0.93389733  0.52172016  0.03036414    -0.15100
C977        C  0.90099079  0.55465816  0.04342493     0.38200
C978        C  0.88026537  0.54545180  0.07511659    -0.26500
C979        C  0.89208687  0.50425336  0.09422096    -0.15700
C980        C  0.92400488  0.47019915  0.07998018     0.36600
N981        N  0.93766182  0.42621457  0.09660185    -0.89900
H982        H  0.47417099  0.45793357  0.04065639     0.17700
H983        H  0.85553602  0.57143140  0.08516614     0.17700
N984        N  0.88947813  0.59783384  0.02476821    -0.89000
H985        H  0.41291017  0.40665551  0.10380508     0.35100
H986        H  0.95344075  0.43664179  0.11760518     0.40200
H987        H  0.87984997  0.58906887  0.50264288     0.39800
H988        H  0.86497954  0.61856341  0.03800667     0.34700
C989        C  0.52829363  0.72186462  0.44952114    -0.27000
C990        C  0.57051183  0.73699701  0.45759822    -0.15100
C991        C  0.60039931  0.70036160  0.46716414     0.35600
C992        C  0.58651712  0.64952537  0.46982573    -0.26500
C993        C  0.54317722  0.63462874  0.46313720    -0.15700
C994        C  0.51422646  0.67195103  0.45259597     0.36600
N995        N  0.96815260  0.66155293  0.44510377    -0.89900
H996        H  0.00322527  0.75162901  0.44074487     0.17700
H997        H  0.60955222  0.62232364  0.47780219     0.17700
N998        N  0.64467786  0.71486705  0.47401827    -0.89000
H999        H  0.96344886  0.67185687  0.42073744     0.35100
H1000       H  0.94661895  0.68253095  0.46088950     0.40200
H1001       H  0.66065589  0.72884317  0.45203426     0.39800
H1002       H  0.66258160  0.68363154  0.48065379     0.34700
C1003       C  0.69302613  0.40471241  0.43693336    -0.27000
C1004       C  0.64743083  0.41334873  0.44135645    -0.15100
C1005       C  0.62424685  0.42966986  0.41456879     0.35600
C1006       C  0.64741145  0.43785686  0.38377853    -0.26500
C1007       C  0.69300556  0.42855536  0.37887615    -0.15700
C1008       C  0.71625086  0.41232739  0.40585856     0.36600
N1009       N  0.76328005  0.40457442  0.40178450    -0.89900
H1010       H  0.71036078  0.39177046  0.45770011     0.17700
H1011       H  0.62942388  0.45016910  0.36318834     0.17700
N1012       N  0.57709244  0.43687871  0.41852157    -0.89000
H1013       H  0.77520750  0.39282142  0.42402236     0.35100
H1014       H  0.77818612  0.43938065  0.39608980     0.40200
H1015       H  0.56202017  0.40183553  0.42315056     0.39800
H1016       H  0.56535682  0.44999434  0.39656870     0.34700
C1017       C  0.64002655  0.46194722  0.11576414    -0.27000
C1018       C  0.68646137  0.46271896  0.11170958    -0.15100
C1019       C  0.70821650  0.45650763  0.07997658     0.35600
C1020       C  0.68293692  0.44562126  0.05312765    -0.26500
C1021       C  0.63658903  0.44165851  0.05765180    -0.15700
C1022       C  0.61488533  0.45225332  0.08893257     0.36600
N1023       N  0.56744660  0.45349262  0.09401678    -0.89900
H1024       H  0.62330005  0.46774948  0.14005395     0.17700
H1025       H  0.69944443  0.43769572  0.02905173     0.17700
N1026       N  0.75587707  0.45813069  0.07565408    -0.89000
H1027       H  0.55432857  0.41815711  0.08912435     0.35100
H1028       H  0.55581633  0.47917303  0.07728912     0.40200
H1029       H  0.76618836  0.49464201  0.08077161     0.39800
H1030       H  0.76671909  0.45127386  0.05098398     0.34700
C1031       C  0.54660844  0.27353932  0.03432585    -0.27000
C1032       C  0.54758482  0.30348575  0.00544646    -0.15100
C1033       C  0.52909996  0.27881173  0.47919510     0.35600
C1034       C  0.52484292  0.22622083  0.47759047    -0.26500
C1035       C  0.53451436  0.19759227  0.00282463    -0.15700
C1036       C  0.54066545  0.22120850  0.03316244     0.36600
N1037       N  0.54159800  0.19225493  0.06289132    -0.89900
H1038       H  0.55172251  0.28964537  0.05807630     0.17700
H1039       H  0.51680951  0.20937762  0.45449848     0.17700
N1040       N  0.52161703  0.30880991  0.45068374    -0.89000
H1041       H  0.51650733  0.20509566  0.07986429     0.35100
H1042       H  0.57205858  0.19887686  0.07275304     0.40200
H1043       H  0.49301832  0.32956622  0.45649878     0.39800
H1044       H  0.51467631  0.28614804  0.43069502     0.34700
C1045       C  0.56548507  0.35458536  0.50596861     0.85800
C1046       C  0.58824616  0.37314405  0.53642411    -0.54400
C1047       C  0.60889184  0.41860693  0.53226281     0.08700
C1048       C  0.60811254  0.44458963  0.99705788     0.19700
C1049       C  0.53477516  0.39837290  0.49790467    -0.55200
C1050       C  0.55606179  0.44439786  0.49323968     0.08800
C1051       C  0.60592838  0.35977542  0.97579805    -0.54700
C1052       C  0.62551932  0.40559506  0.97170351     0.09400
H1053       H  0.59027304  0.35246126  0.55918609     0.13900
H1054       H  0.62653142  0.48060029  0.99432985    -0.00300
H1055       H  0.49965537  0.39245490  0.49589126     0.14200
H1056       H  0.61408924  0.32914742  0.95888773     0.14000
C1057       C  0.52507505  0.58326236  0.96983852     0.85800
C1058       C  0.98286787  0.57936222  0.99607967    -0.54400
C1059       C  0.96244448  0.53380654  0.00007343     0.08700
C1060       C  0.48506980  0.49600447  0.97746041     0.19700
C1061       C  0.55572286  0.54035536  0.97962774    -0.55200
C1062       C  0.53477774  0.49408401  0.98381617     0.08800
C1063       C  0.50534273  0.56342842  0.93877065    -0.54700
C1064       C  0.98188021  0.51612127  0.94145737     0.09400
H1065       H  0.97976704  0.61357414  0.51133040     0.13900
H1066       H  0.96440169  0.45723710  0.97896306    -0.00300
H1067       H  0.59050481  0.54609118  0.98265194     0.14200
H1068       H  0.00552883  0.58226091  0.91496430     0.14000
Zr1069     Zr  0.78745501  0.53074774  0.68503524     2.17500
O1070       O  0.73860285  0.59299511  0.66351327    -0.52000
O1071       O  0.83964757  0.52776039  0.63635320    -0.75200
O1072       O  0.81476650  0.61723261  0.69115245    -0.82000
O1073       O  0.71417394  0.42442655  0.65749532    -0.83800
O1074       O  0.84691495  0.62270172  0.73975603    -0.79400
O1075       O  0.73766594  0.50392249  0.64390954    -0.91000
O1076       O  0.88971989  0.46827091  0.64589555    -0.77000
O1077       O  0.85692510  0.52110554  0.70829499    -0.86500
O1078       O  0.80675167  0.44479725  0.67752851    -0.86200
O1079       O  0.77365364  0.55218461  0.74235696    -0.72900
O1080       O  0.72865786  0.48125834  0.71273266    -0.85000
Zr1081     Zr  0.80590140  0.40667102  0.78662713     2.26400
Zr1082     Zr  0.84320675  0.54055086  0.76568207     2.06300
Zr1083     Zr  0.74925323  0.39557862  0.70606932     2.10000
Zr1084     Zr  0.87577729  0.43542051  0.70107380     1.78800
O1085       O  0.67271739  0.36769983  0.71821132    -0.93900
O1086       O  0.95054385  0.47090720  0.69966929    -0.41700
O1087       O  0.81880780  0.38590604  0.72941958    -0.78300
O1088       O  0.86555336  0.45503608  0.75862571    -0.97000
O1089       O  0.78532518  0.49196303  0.79427629    -0.90300
O1090       O  0.73590489  0.41492054  0.76363793    -0.93100
C1091       C  0.87331329  0.50077818  0.62731670     1.00600
C1092       C  0.71502840  0.46386913  0.63918909     1.13600
C1093       C  0.83392990  0.64230063  0.71329714     1.04300
O1094       O  0.91918217  0.57262734  0.76231288    -0.95300
O1095       O  0.87871107  0.51466238  0.81431746    -0.91000
O1096       O  0.85915995  0.43342885  0.82555828    -0.84200
C1097       C  0.88017687  0.47418067  0.83130506     1.11000
O1098       O  0.66356283  0.55827319  0.74874378    -0.97300
Zr1099     Zr  0.71671370  0.50102867  0.77010173     1.88900
O1100       O  0.75151962  0.40756462  0.83398017    -0.73900
O1101       O  0.81822001  0.59797326  0.80965640    -0.53200
O1102       O  0.70434373  0.57635220  0.80317985    -0.97800
O1103       O  0.64234300  0.46408526  0.77151508    -0.55100
O1104       O  0.70485813  0.47141641  0.82633433    -0.74400
C1105       C  0.71988848  0.43661702  0.84401907     0.97900
O1106       O  0.82997497  0.33687888  0.81963400    -0.63200
O1107       O  0.76227338  0.33359046  0.66240429    -0.58000
O1108       O  0.80172397  0.31906655  0.76936499    -0.94700
O1109       O  0.76126782  0.31052266  0.72480929    -0.93200
O1110       O  0.88193527  0.36010867  0.66731791    -0.93500
O1111       O  0.93135452  0.37847067  0.71935333    -0.92300
C1112       C  0.78408477  0.29239803  0.74730101     1.16800
H1113       H  0.80889215  0.43566566  0.65443059     0.32700
H1114       H  0.89353535  0.44914539  0.76780297     0.43600
H1115       H  0.71390846  0.39259497  0.77443556     0.37100
H1116       H  0.76458451  0.58666073  0.74446451     0.33600
H1117       H  0.96672454  0.45528270  0.68023892     0.25400
H1118       H  0.84462145  0.61903234  0.81318270     0.31300
H1119       H  0.71923790  0.57018134  0.82367278     0.37200
H1120       H  0.91219625  0.36187992  0.65609957     0.31700
H1121       H  0.73260152  0.31910264  0.65921629     0.30500
H1122       H  0.65483324  0.39761332  0.71417117     0.32200
H1123       H  0.62349842  0.48681312  0.78565294     0.31200
H1124       H  0.91495857  0.35692331  0.73619101     0.35200
H1125       H  0.86273168  0.33647570  0.81582641     0.27900
H1126       H  0.75739854  0.61294520  0.64709941     0.32200
H1127       H  0.66321458  0.54983121  0.72500004     0.35000
H1128       H  0.77042732  0.35294860  0.64192221     0.27600
H1129       H  0.82409384  0.34695746  0.84302539     0.40500
H1130       H  0.93771471  0.54286242  0.75733687     0.30500
H1131       H  0.94735440  0.50636390  0.69311671     0.38200
H1132       H  0.64356033  0.43315107  0.78491014     0.30000
H1133       H  0.79762833  0.62086482  0.79945881     0.30100
H1134       H  0.73113610  0.61623088  0.68206541     0.30300
C1135       C  0.84220012  0.08377813  0.73797319     0.85800
C1136       C  0.88130226  0.08144299  0.71182130    -0.54400
C1137       C  0.90246131  0.03675928  0.71001685     0.08700
C1138       C  0.88208997  0.99743175  0.73493659     0.19700
C1139       C  0.81201680  0.03909931  0.72894219    -0.55200
C1140       C  0.83313279  0.99334474  0.72694573     0.08800
C1141       C  0.86056848  0.06759950  0.77026118    -0.54700
C1142       C  0.88094159  0.02250381  0.76931566     0.09400
H1143       H  0.88884208  0.11161861  0.69415731     0.13900
H1144       H  0.90016598  0.96165292  0.73393304    -0.00300
H1145       H  0.77783667  0.04356015  0.72382199     0.14200
H1146       H  0.85910240  0.09150826  0.79191773     0.14000
C1147       C  0.80314027  0.85440836  0.70554180     0.85800
C1148       C  0.77785948  0.87081799  0.67603344    -0.54400
C1149       C  0.75665657  0.91543608  0.67992706     0.08700
C1150       C  0.76115365  0.93941258  0.71418100     0.19700
C1151       C  0.83334177  0.89979855  0.71260674    -0.55200
C1152       C  0.81146047  0.94478738  0.71730045     0.08800
C1153       C  0.76718388  0.85429017  0.73450230    -0.54700
C1154       C  0.74633374  0.89859957  0.73963717     0.09400
H1155       H  0.77372431  0.84850063  0.65432734     0.13900
H1156       H  0.74212730  0.97424941  0.71805713    -0.00300
H1157       H  0.86857065  0.89531707  0.71451686     0.14200
H1158       H  0.76114047  0.82295546  0.75150267     0.14000
Zr1159     Zr  0.58068607  0.02617190  0.52589715     2.17500
O1160       O  0.62929197  0.08583477  0.55141625    -0.52000
O1161       O  0.52734681  0.02188766  0.57393901    -0.75200
O1162       O  0.55659066  0.11340021  0.52063378    -0.82000
O1163       O  0.65457767  0.92089593  0.54998915    -0.83800
O1164       O  0.52450488  0.12390779  0.97166988    -0.79400
O1165       O  0.63003242  0.99777113  0.56662124    -0.91000
O1166       O  0.97684674  0.96881687  0.56471299    -0.77000
O1167       O  0.51072316  0.01783003  0.50303863    -0.86500
O1168       O  0.55956008  0.93989464  0.53224477    -0.86200
O1169       O  0.59668819  0.05298620  0.96866953    -0.72900
O1170       O  0.63978645  0.98087368  0.99683183    -0.85000
Zr1171     Zr  0.55997265  0.91003629  0.92211678     2.26400
Zr1172     Zr  0.52678869  0.04294796  0.94516130     2.06300
Zr1173     Zr  0.61631447  0.89291256  0.50236325     2.10000
Zr1174     Zr  0.98829614  0.93837243  0.50871990     1.78800
O1175       O  0.69178480  0.86594938  0.98979107    -0.93900
O1176       O  0.91574211  0.97766060  0.51236897    -0.41700
O1177       O  0.54633937  0.88698518  0.97923651    -0.78300
O1178       O  0.99913069  0.95627713  0.95232466    -0.97000
O1179       O  0.58303075  0.99523414  0.91530492    -0.90300
O1180       O  0.63020999  0.91702823  0.94525642    -0.93100
C1181       C  0.99546870  0.00028237  0.58318677     1.00600
C1182       C  0.65386606  0.95875094  0.56958921     1.13600
C1183       C  0.53742105  0.13980593  0.49934171     1.04300
O1184       O  0.94800552  0.07254618  0.95072413    -0.95300
O1185       O  0.98746746  0.01952687  0.89690840    -0.91000
O1186       O  0.00576748  0.93942424  0.88346474    -0.84200
C1187       C  0.98547189  0.98046776  0.87868824     1.11000
O1188       O  0.70440856  0.06280085  0.96084892    -0.97300
Zr1189     Zr  0.65205030  0.00306630  0.93949804     1.88900
O1190       O  0.61757270  0.90916760  0.87650273    -0.73900
O1191       O  0.55363929  0.10333996  0.90280871    -0.53200
O1192       O  0.65712953  0.07591153  0.90297261    -0.97800
O1193       O  0.72822023  0.97412034  0.94024959    -0.55100
O1194       O  0.67004720  0.96803866  0.88510810    -0.74400
C1195       C  0.65320532  0.93394361  0.86750630     0.97900
O1196       O  0.02157471  0.84203349  0.89200710    -0.63200
O1197       O  0.60740935  0.82950684  0.54588810    -0.58000
O1198       O  0.56466498  0.82129194  0.93656796    -0.94700
O1199       O  0.60331612  0.81129574  0.98191805    -0.93200
O1200       O  0.97812953  0.86272471  0.54228691    -0.93500
O1201       O  0.93172298  0.88306941  0.48854423    -0.92300
C1202       C  0.58167311  0.79388599  0.95839585     1.16800
H1203       H  0.55723735  0.92984199  0.55523810     0.32700
H1204       H  0.97094772  0.95120218  0.94313138     0.43600
H1205       H  0.65183767  0.89492351  0.93440961     0.37100
H1206       H  0.60663060  0.08750632  0.96708968     0.33600
H1207       H  0.89809605  0.95874519  0.52997524     0.25400
H1208       H  0.52761420  0.12424237  0.89920579     0.31300
H1209       H  0.63904949  0.06687953  0.88449227     0.37200
H1210       H  0.94859768  0.86636250  0.55435154     0.31700
H1211       H  0.63799539  0.82130755  0.55101910     0.30500
H1212       H  0.69146535  0.82937589  0.49465453     0.32200
H1213       H  0.74165414  0.97904036  0.91739353     0.31200
H1214       H  0.95581818  0.85031560  0.97544854     0.35200
H1215       H  0.98915866  0.84666783  0.89615424     0.27900
H1216       H  0.60985699  0.10464724  0.56767286     0.32200
H1217       H  0.72269965  0.07579084  0.94128976     0.35000
H1218       H  0.59461063  0.84728221  0.56572001     0.27600
H1219       H  0.02838804  0.85000114  0.86828143     0.40500
H1220       H  0.92910095  0.04194211  0.95211626     0.30500
H1221       H  0.92064219  0.01099549  0.52221314     0.38200
H1222       H  0.72566783  0.93732472  0.94300511     0.30000
H1223       H  0.57402404  0.12597586  0.91384874     0.30100
H1224       H  0.63881402  0.11044736  0.53388492     0.30300
C1225       C  0.67765341  0.89581851  0.77708097    -0.27000
C1226       C  0.72245855  0.90891863  0.77193765    -0.15100
C1227       C  0.74555163  0.92626483  0.79863107     0.35600
C1228       C  0.72219181  0.93453860  0.82940530    -0.26500
C1229       C  0.67668465  0.92297020  0.83463047    -0.15700
C1230       C  0.65457974  0.90209954  0.80819971     0.36600
N1231       N  0.60856890  0.88836885  0.81273376    -0.89900
H1232       H  0.66074051  0.88019517  0.75679756     0.17700
H1233       H  0.73990770  0.94910459  0.84960673     0.17700
N1234       N  0.79280660  0.93407112  0.79465953    -0.89000
H1235       H  0.59721624  0.87417332  0.79087153     0.35100
H1236       H  0.59183115  0.92161679  0.81765100     0.40200
H1237       H  0.80731101  0.89971392  0.78833855     0.39800
H1238       H  0.80479172  0.94344836  0.81730839     0.34700
C1239       C  0.75132053  0.93246432  0.61999299    -0.27000
C1240       C  0.73188189  0.93617982  0.65257093    -0.15100
C1241       C  0.68805123  0.95383444  0.65769631     0.35600
C1242       C  0.66392520  0.96452993  0.63010234    -0.26500
C1243       C  0.68235620  0.95642580  0.59768023    -0.15700
C1244       C  0.72700205  0.94194394  0.59258852     0.36600
N1245       N  0.74719352  0.93602189  0.55955175    -0.89900
H1246       H  0.78535144  0.92022990  0.61589130     0.17700
H1247       H  0.62967856  0.97605882  0.63393152     0.17700
N1248       N  0.66729413  0.95814150  0.69063558    -0.89000
H1249       H  0.78004129  0.92439752  0.56005139     0.35100
H1250       H  0.74837985  0.97129300  0.54820415     0.40200
H1251       H  0.66405927  0.92201113  0.70063181     0.39800
H1252       H  0.63515996  0.97194518  0.69009517     0.34700
C1253       C  0.94519661  0.98135411  0.79221510    -0.27000
C1254       C  0.90336886  0.00320390  0.79817158    -0.15100
C1255       C  0.88672912  0.01137131  0.83156696     0.35600
C1256       C  0.91411587  0.00270563  0.85716639    -0.26500
C1257       C  0.95670092  0.98339695  0.85091748    -0.15700
C1258       C  0.97143792  0.97057965  0.81817828     0.36600
N1259       N  0.51366418  0.95170781  0.80971767    -0.89900
H1260       H  0.95870378  0.97457838  0.76712074     0.17700
H1261       H  0.90180902  0.01095151  0.88237816     0.17700
N1262       N  0.84225838  0.02731636  0.84086258    -0.89000
H1263       H  0.51544034  0.91742646  0.82201487     0.35100
H1264       H  0.53720758  0.97676689  0.81798377     0.40200
H1265       H  0.82212124  0.02661984  0.82116659     0.39800
H1266       H  0.84386783  0.06406277  0.84960140     0.34700
C1267       C  0.92395349  0.98014360  0.66355800    -0.27000
C1268       C  0.93240993  0.02427097  0.68061059    -0.15100
C1269       C  0.96496738  0.05829701  0.66700079     0.35600
C1270       C  0.98640635  0.04898589  0.63574062    -0.26500
C1271       C  0.97586301  0.00614273  0.61765578    -0.15700
C1272       C  0.94568000  0.97015119  0.63258351     0.36600
N1273       N  0.93672971  0.92370979  0.61629848    -0.89900
H1274       H  0.89883911  0.95410130  0.67369094     0.17700
H1275       H  0.01027281  0.07637351  0.62520132     0.17700
N1276       N  0.97580219  0.10273614  0.68457535    -0.89000
H1277       H  0.91274879  0.90236002  0.63022886     0.35100
H1278       H  0.96591313  0.90294640  0.61513449     0.40200
H1279       H  0.00970051  0.10223750  0.68803607     0.39800
H1280       H  0.96999458  0.13369757  0.66971955     0.34700
C1281       C  0.83414167  0.72009748  0.67807348    -0.27000
C1282       C  0.83879464  0.69799281  0.70909088    -0.15100
C1283       C  0.84482790  0.73015509  0.73615751     0.35600
C1284       C  0.83947030  0.78206345  0.73275413    -0.26500
C1285       C  0.82660007  0.80317154  0.70319518    -0.15700
C1286       C  0.83030895  0.77249145  0.67451882     0.36600
N1287       N  0.83220398  0.79414063  0.64198109    -0.89900
H1288       H  0.83312110  0.69640716  0.65648365     0.17700
H1289       H  0.84093792  0.80540204  0.75449162     0.17700
N1290       N  0.85357413  0.71042758  0.76785034    -0.89000
H1291       H  0.83580607  0.76641573  0.62382978     0.35100
H1292       H  0.86067916  0.81685987  0.63919124     0.40200
H1293       H  0.82797307  0.72131596  0.78506721     0.39800
H1294       H  0.88315723  0.72661689  0.77468676     0.34700
C1295       C  0.78043010  0.14983509  0.73472466    -0.27000
C1296       C  0.82425203  0.13730611  0.74083837    -0.15100
C1297       C  0.85324565  0.17642195  0.74966145     0.35600
C1298       C  0.83838015  0.22556761  0.75257159    -0.26500
C1299       C  0.79522174  0.23830689  0.74596880    -0.15700
C1300       C  0.76587293  0.20006665  0.73661444     0.36600
N1301       N  0.72128157  0.21196282  0.72971936    -0.89900
H1302       H  0.75743710  0.12120579  0.72784921     0.17700
H1303       H  0.86166648  0.25447103  0.75905384     0.17700
N1304       N  0.89855222  0.16648498  0.75535650    -0.89000
H1305       H  0.70309923  0.17924378  0.72573428     0.35100
H1306       H  0.72299953  0.23180040  0.70739134     0.40200
H1307       H  0.90408286  0.17815349  0.77930209     0.39800
H1308       H  0.91902886  0.18791432  0.73864295     0.34700
C1309       C  0.88957851  0.46663109  0.89137534    -0.27000
C1310       C  0.90853261  0.47512906  0.85916738    -0.15100
C1311       C  0.95325530  0.49033153  0.85411271     0.35600
C1312       C  0.97766254  0.49919761  0.88153031    -0.26500
C1313       C  0.95784182  0.49490463  0.91397343    -0.15700
C1314       C  0.91344544  0.47757113  0.91897798     0.36600
N1315       N  0.89161097  0.47486530  0.95171957    -0.89900
H1316       H  0.85500978  0.45541268  0.89500583     0.17700
H1317       H  0.51283710  0.51584563  0.87849186     0.17700
N1318       N  0.97312837  0.49847450  0.82111523    -0.89000
H1319       H  0.85926340  0.46081985  0.95104335     0.35100
H1320       H  0.88874622  0.51149825  0.96063212     0.40200
H1321       H  0.97363931  0.46398760  0.80893573     0.39800
H1322       H  0.50747321  0.51510817  0.82276222     0.34700
C1323       C  0.94648479  0.48224110  0.54754899    -0.27000
C1324       C  0.93719241  0.52518919  0.52973041    -0.15100
C1325       C  0.90444783  0.55836942  0.54279133     0.38200
C1326       C  0.88339388  0.54899515  0.57437806    -0.26500
C1327       C  0.89461958  0.50728390  0.59324819    -0.15700
C1328       C  0.92611480  0.47289249  0.57888172     0.36600
N1329       N  0.93884715  0.42818780  0.59514893    -0.89900
H1330       H  0.47134094  0.45491406  0.53893252     0.17700
H1331       H  0.85888321  0.57516243  0.58452689     0.17700
N1332       N  0.89320209  0.60169689  0.52417853    -0.89000
H1333       H  0.40849465  0.40574606  0.60221296     0.35100
H1334       H  0.95495825  0.43771562  0.61617097     0.40200
H1335       H  0.87576762  0.58502899  0.00341426     0.39800
H1336       H  0.86841661  0.62220393  0.53727746     0.34700
C1337       C  0.52958183  0.72417798  0.94968859    -0.27000
C1338       C  0.57168123  0.73919200  0.95814532    -0.15100
C1339       C  0.60050270  0.70265733  0.96944864     0.35600
C1340       C  0.58622982  0.65197484  0.97222187    -0.26500
C1341       C  0.54316321  0.63715525  0.96476572    -0.15700
C1342       C  0.51471642  0.67461033  0.95374482     0.36600
N1343       N  0.96581695  0.65977172  0.94646069    -0.89900
H1344       H  0.00149660  0.74975044  0.94209221     0.17700
H1345       H  0.60863041  0.62493936  0.98123783     0.17700
N1346       N  0.64391556  0.71714978  0.97838271    -0.89000
H1347       H  0.96184077  0.66993447  0.92195448     0.35100
H1348       H  0.94394508  0.68094337  0.96185658     0.40200
H1349       H  0.66197459  0.73012694  0.95694921     0.39800
H1350       H  0.66078620  0.68613571  0.98664643     0.34700
C1351       C  0.69423074  0.39753246  0.93442569    -0.27000
C1352       C  0.65202508  0.41807180  0.94068268    -0.15100
C1353       C  0.63284512  0.44494962  0.91565994     0.35600
C1354       C  0.65638153  0.45127071  0.88491119    -0.26500
C1355       C  0.69832054  0.43002231  0.87796346    -0.15700
C1356       C  0.71790797  0.40347026  0.90332807     0.36600
N1357       N  0.76143145  0.38266446  0.89761156    -0.89900
H1358       H  0.70837968  0.37625778  0.95374386     0.17700
H1359       H  0.64077424  0.47138206  0.86578293     0.17700
N1360       N  0.58852716  0.46358378  0.92087068    -0.89000
H1361       H  0.77028062  0.36343930  0.91857068     0.35100
H1362       H  0.78388468  0.41261471  0.89393494     0.40200
H1363       H  0.56693466  0.43261769  0.92290597     0.39800
H1364       H  0.57998890  0.48414604  0.90039542     0.34700
C1365       C  0.64171320  0.46163089  0.61589208    -0.27000
C1366       C  0.68807717  0.46212917  0.61048425    -0.15100
C1367       C  0.70804078  0.45502260  0.57826436     0.35600
C1368       C  0.68110298  0.44427688  0.55232410    -0.26500
C1369       C  0.63489129  0.44031219  0.55825462    -0.15700
C1370       C  0.61492777  0.45105022  0.59010022     0.36600
N1371       N  0.56766816  0.45121863  0.59692156    -0.89900
H1372       H  0.62631740  0.46773310  0.64057362     0.17700
H1373       H  0.69628619  0.43608476  0.52786478     0.17700
N1374       N  0.75556426  0.45549127  0.57251789    -0.89000
H1375       H  0.55489798  0.41533840  0.59319644     0.35100
H1376       H  0.55428589  0.47582805  0.58033953     0.40200
H1377       H  0.76683845  0.49180953  0.57712304     0.39800
H1378       H  0.76496132  0.44808986  0.54766297     0.34700
C1379       C  0.54576767  0.27089967  0.53635401    -0.27000
C1380       C  0.54402076  0.30155558  0.50800874    -0.15100
C1381       C  0.53415808  0.28050237  0.97623765     0.35600
C1382       C  0.52845107  0.22807220  0.97517247    -0.26500
C1383       C  0.53348407  0.19525542  0.50446285    -0.15700
C1384       C  0.54115644  0.21844707  0.53472743     0.36600
N1385       N  0.54518627  0.18900935  0.56390829    -0.89900
H1386       H  0.55246274  0.28639312  0.55995510     0.17700
H1387       H  0.52167414  0.21086044  0.95190615     0.17700
N1388       N  0.52975577  0.30992870  0.94690838    -0.89000
H1389       H  0.52100370  0.20066333  0.58200661     0.35100
H1390       H  0.57631711  0.19651137  0.57247482     0.40200
H1391       H  0.50243647  0.33314279  0.95154771     0.39800
H1392       H  0.52245232  0.28706058  0.92710496     0.34700
loop_ 
_geom_bond_atom_site_label_1 
_geom_bond_atom_site_label_2 
_geom_bond_distance 
_geom_bond_site_symmetry_2 
_ccdc_geom_bond_type 
C1            C2   1.540       .  S
C1            C5   1.550   1_554  S
C1          C355   1.539   1_554  S
C1          C336   1.551       .  S
C2            H9   1.081       .  S
C2            C3   1.362       .  D
C3          C352   1.537   1_554  S
C3          C325   1.481       .  S
C4            C8   1.531       .  S
C4          C351   1.537       .  S
C4          C354   1.542       .  S
C4           H10   1.106       .  S
C5           H11   1.081   1_455  S
C5            C6   1.385       .  D
C6          C352   1.539       .  S
C6          C366   1.508       .  S
C7          C349   1.535       .  S
C7           H12   1.087       .  S
C7            C8   1.356       .  D
C8          C308   1.467       .  S
C13          C19   1.528       .  S
C13          C17   1.553       .  S
C13         C710   1.532   1_455  S
C13         C297   1.538       .  S
C14         C709   1.530       .  S
C14         H369   1.087       .  S
C14          C15   1.360       .  D
C15         C712   1.538       .  S
C15         C628   1.479       .  S
C16          C18   1.545   1_655  S
C16         C711   1.536       .  S
C16         C716   1.538       .  S
C16         H718   1.105       .  S
C17          H23   1.078       .  S
C17          C18   1.385       .  D
C18         C354   1.510       .  S
C19         H720   1.087       .  S
C19         C716   1.359   1_455  D
C20         C712   1.542       .  S
C20         C715   1.360       .  D
C20         C269   1.491       .  S
H21         C362   1.087   1_554  S
H22         C712   1.105       .  S
H24         C715   1.086       .  S
Zr25         O26   2.440       .  S
Zr25         O27   2.429       .  S
Zr25         O28   2.469       .  S
Zr25         O31   2.438       .  S
Zr25         O33   2.383       .  S
Zr25         O34   2.388       .  S
Zr25         O35   2.403       .  S
Zr25         O36   2.409       .  S
O26          H82   0.990       .  S
O26          H90   0.990       .  S
O27          C47   1.284       .  A
O28          C49   1.291       .  A
O29         Zr39   2.436       .  S
O29          C48   1.284       .  A
O30         Zr38   2.422       .  S
O30          C49   1.283       .  A
O31          C48   1.285       .  A
O32         Zr40   2.399       .  S
O32          C47   1.276       .  A
O33         Zr38   2.394       .  S
O33         Zr40   2.379       .  S
O34         Zr39   2.393       .  S
O34         Zr40   2.376       .  S
O34          H69   0.967       .  S
O35         Zr38   2.402       .  S
O35         Zr55   2.394       .  S
O35          H72   0.966       .  S
O36         Zr39   2.387       .  S
O36         Zr55   2.390       .  S
Zr37         O62   2.442       .  S
Zr37         O56   2.426       .  S
Zr37         O64   2.455       .  S
Zr37         O52   2.458       .  S
Zr37         O43   2.387       .  S
Zr37         O44   2.409       .  S
Zr37         O45   2.376       .  S
Zr37         O46   2.393       .  S
Zr38         O57   2.436       .  S
Zr38         O50   2.434       .  S
Zr38         O51   2.421       .  S
Zr38         O44   2.400       .  S
Zr38         O45   2.388       .  S
Zr39         O41   2.437       .  S
Zr39         O63   2.440       .  S
Zr39         O65   2.438       .  S
Zr39         O43   2.387       .  S
Zr39         O46   2.395       .  S
Zr40         O66   2.436       .  S
Zr40         O67   2.436       .  S
Zr40         O42   2.437       .  S
Zr40         O43   2.370       .  S
Zr40         O44   2.395       .  S
O41          H78   0.990       .  S
O42          H73   0.991       .  S
O42          H87   0.990       .  S
O44          H70   0.965       .  S
O45         Zr55   2.379       .  S
O46         Zr55   2.387       .  S
O46          H71   0.965       .  S
C47         C283   1.486       .  S
C48         C322   1.476       .  S
C49         C238   1.500       .  S
O50          H86   0.990       .  S
O51          C53   1.282       .  A
O52          C53   1.286       .  A
C53         C266   1.478       .  S
O54         Zr55   2.440       .  S
O54          H83   0.990       .  S
Zr55         O58   2.438       .  S
Zr55         O59   2.444       .  S
Zr55         O60   2.407       .  S
O56          C61   1.281       .  A
O57          H74   0.990       .  S
O57          H89   0.990       .  S
O58          H75   0.990       .  S
O59          H79   0.990       .  S
O59          H88   0.989       .  S
O60          C61   1.280       .  A
C61         C311   1.476       .  S
O62          H81   0.990       .  S
O62          H85   0.990       .  S
O63          H77   0.990       .  S
O63          H84   0.990       .  S
O64          C68   1.290       .  A
O65          C68   1.285       .  A
O66          H76   0.990       .  S
O67          H80   0.990       .  S
C68         C255   1.488       .  S
C91          C92   1.529       .  S
C91          C97   1.529       .  S
C91          C95   1.557       .  S
C91         C252   1.542       .  S
C92          H99   1.087       .  S
C92          C93   1.360       .  D
C93          C94   1.540   1_545  S
C93         C224   1.479       .  S
C94          C98   1.548   1_565  S
C94          C96   1.543       .  S
C94         H100   1.105       .  S
C95         H101   1.078       .  S
C95          C96   1.385   1_545  D
C96         C108   1.515       .  S
C97         H102   1.086       .  S
C97          C98   1.361       .  D
C98         C210   1.496       .  S
C103        C104   1.537       .  S
C103        C109   1.537       .  S
C103        C107   1.548       .  S
C103        C241   1.550       .  S
C104        H111   1.079       .  S
C104        C105   1.364       .  D
C105        C106   1.547       .  S
C105        C196   1.494       .  S
C106        C110   1.536       .  S
C106        C108   1.544       .  S
C106        H112   1.106       .  S
C107        H113   1.082       .  S
C107        C108   1.385       .  D
C109        H114   1.087       .  S
C109        C110   1.355       .  D
C110        C182   1.472       .  S
Zr115       O116   2.439       .  S
Zr115       O117   2.432       .  S
Zr115       O118   2.460       .  S
Zr115       O121   2.437   1_545  S
Zr115       O123   2.384       .  S
Zr115       O124   2.387   1_545  S
Zr115       O473   2.403   1_554  S
Zr115       O474   2.410   1_544  S
O116        H172   0.990       .  S
O116        H180   0.990       .  S
O117        C833   1.285   1_445  A
O118        C139   1.290       .  A
O119       Zr129   2.441       .  S
O119        C138   1.286       .  A
O120       Zr128   2.420       .  S
O120        C487   1.283       .  A
O121        C138   1.285       .  A
O122       Zr130   2.419       .  S
O122        C137   1.281       .  A
O123       Zr476   2.392   1_554  S
O123       Zr826   2.377   1_445  S
O124       Zr129   2.390       .  S
O124       Zr826   2.376   1_455  S
O124        H159   0.966       .  S
O125       Zr128   2.400       .  S
O125       Zr145   2.396       .  S
O125       Zr463   2.408       .  S
O125        H162   0.966       .  S
O126       Zr145   2.395   1_565  S
O126       Zr463   2.410   1_565  S
O126       Zr477   2.393       .  S
Zr127       O848   2.441       .  S
Zr127       O146   2.437       .  S
Zr127       O154   2.438       .  S
Zr127       O838   2.449       .  S
Zr127       O133   2.396       .  S
Zr127       O135   2.381       .  S
Zr127       O136   2.389       .  S
Zr127       O830   2.411   1_455  S
Zr128       O147   2.436       .  S
Zr128       O836   2.435   1_455  S
Zr128       O837   2.418   1_455  S
Zr128       O135   2.393   1_545  S
Zr128       O471   2.393       .  S
Zr128       O830   2.394   1_445  S
Zr129       O153   2.438       .  S
Zr129       O479   2.437   1_554  S
Zr129       O503   2.435   1_554  S
Zr129       O474   2.390   1_554  S
Zr129       O481   2.387   1_554  S
Zr129       O484   2.396   1_554  S
Zr130       O156   2.435       .  S
Zr130       O157   2.436   1_554  S
Zr130       O132   2.438       .  S
Zr130       O819   2.377   1_565  S
Zr130       O820   2.373       .  S
Zr130      O1177   2.387   1_554  S
Zr130       O482   2.395   1_554  S
O131       Zr477   2.435       .  S
O131        H516   0.990       .  S
O132        H163   0.991       .  S
O132        H177   0.990   1_565  S
O133       Zr477   2.387       .  S
O133      Zr1174   2.386   1_455  S
O134       Zr823   2.410       .  S
O134       Zr824   2.398   1_565  S
O134       Zr478   2.393       .  S
O134        H160   0.965       .  S
O135       Zr145   2.380   1_565  S
O136       Zr145   2.387   1_565  S
O136       Zr477   2.394       .  S
O136        H161   0.967       .  S
C137        O813   1.284   1_565  A
C137        C227   1.489   1_565  S
C138        C199   1.480       .  S
C139        O468   1.284   1_554  A
C139        C339   1.501       .  S
O140       Zr824   2.434       .  S
O140        H176   0.990       .  S
O141       Zr824   2.419       .  S
O141        C143   1.282   1_545  A
O142       Zr823   2.460       .  S
O142        C143   1.287       .  A
C143        C213   1.484       .  S
O144       Zr145   2.439       .  S
O144        H173   0.990       .  S
Zr145       O148   2.438       .  S
Zr145       O149   2.440   1_545  S
Zr145       O150   2.419   1_545  S
O146        C151   1.284       .  A
O147        H164   0.990       .  S
O147        H179   0.990       .  S
O148        H165   0.990       .  S
O149        H169   0.990       .  S
O149        H178   0.989       .  S
O150        C151   1.282       .  A
C151        C185   1.490       .  S
O152       Zr823   2.442       .  S
O152        H171   0.991       .  S
O152        H175   0.990       .  S
O153        H167   0.990       .  S
O153        H174   0.990       .  S
O154        C158   1.286       .  A
O155       Zr477   2.435       .  S
O155        C158   1.284       .  A
O156        H166   0.990       .  S
O157        H518   0.990       .  S
C158        C294   1.487       .  S
H168        O479   0.990   1_554  S
H170        O505   0.991       .  S
C181        C182   1.396       .  A
C181        C186   1.406       .  A
C181        H188   1.083       .  S
C182        C183   1.408       .  A
C183        C184   1.401       .  A
C183        N190   1.437       .  S
C184        C185   1.405       .  A
C184        H189   1.083       .  S
C185        C186   1.417       .  A
C186        N187   1.432       .  S
N187        H191   1.046       .  S
N187        H192   1.039       .  S
N190        H193   1.045       .  S
N190        H194   1.044       .  S
C195        C196   1.407       .  A
C195        C200   1.405       .  A
C195        H202   1.084       .  S
C196        C197   1.413       .  A
C197        C198   1.412       .  A
C197        N204   1.436       .  S
C198        C199   1.404       .  A
C198        H203   1.084       .  S
C199        C200   1.408       .  A
C200        N201   1.438       .  S
N201        H205   1.046       .  S
N201        H206   1.046       .  S
N204        H207   1.045       .  S
N204        H208   1.045       .  S
C209        C210   1.404   1_565  A
C209        C214   1.401       .  A
C209        H216   1.083       .  S
C210        C211   1.425       .  A
C211        C212   1.400       .  A
C211        N218   1.437       .  S
C212        C213   1.400   1_545  A
C212        H217   1.084       .  S
C213        C214   1.412       .  A
C214        N911   1.425       .  S
N215        C910   1.425   1_455  S
N215        H219   1.044       .  S
N215        H220   1.045       .  S
N218        H221   1.041       .  S
N218        H222   1.045       .  S
C223        C224   1.398   1_565  A
C223        C228   1.401       .  A
C223        H230   1.081       .  S
C224        C225   1.407       .  A
C225        C226   1.403       .  A
C225        N232   1.432       .  S
C226        C227   1.408       .  A
C226        H231   1.084       .  S
C227        C228   1.420   1_545  A
C228        N229   1.438       .  S
N229        H233   1.046       .  S
N229        H234   1.045       .  S
N232        H235   1.046       .  S
N232        H236   1.045       .  S
C237        C238   1.405       .  A
C237        C242   1.413       .  A
C237        H244   1.083       .  S
C238        C239   1.417       .  A
C239        C240   1.405       .  A
C239        N246   1.432       .  S
C240        C241   1.408       .  A
C240        H245   1.084       .  S
C241        C242   1.422       .  A
C242        N243   1.435       .  S
N243        H247   1.045       .  S
N243        H248   1.046       .  S
N246        H249   1.046       .  S
N246        H250   1.046       .  S
C251        C252   1.413       .  A
C251        C256   1.418       .  A
C251        H258   1.078       .  S
C252        C253   1.420       .  A
C253        C254   1.396       .  A
C253        N260   1.434       .  S
C254        C255   1.398       .  A
C254        H259   1.084       .  S
C255        C256   1.415       .  A
C256        N257   1.437       .  S
N257        H261   1.046       .  S
N257        H262   1.045       .  S
N260        H263   1.046       .  S
N260        H264   1.046       .  S
C265        C266   1.403       .  A
C265        C270   1.410       .  A
C265        H272   1.081       .  S
C266        C267   1.408       .  A
C267        C268   1.403       .  A
C267        N274   1.438       .  S
C268        C269   1.406       .  A
C268        H969   1.083       .  S
C269        C270   1.414       .  A
C270        N271   1.437       .  S
N271        H275   1.046       .  S
N271        H276   1.045       .  S
H273        C964   1.083   1_455  S
N274        H277   1.045       .  S
N274        H974   1.046       .  S
H278        N970   1.046   1_455  S
C279        C280   1.396       .  A
C279        C284   1.389       .  A
C279        H982   1.083       .  S
C280        C363   1.476       .  S
C280        C281   1.410       .  A
C281        C282   1.405       .  A
C281        N288   1.438       .  S
C282        C283   1.409       .  A
C282        H287   1.083       .  S
C283        C284   1.424       .  A
C284        N285   1.433       .  S
N285        H290   1.045       .  S
N285        H985   1.045       .  S
H286        C975   1.081       .  S
N288        H292   1.046       .  S
N288        H639   1.045       .  S
H289        N981   1.045       .  S
H291        N636   1.045       .  S
C293        C294   1.399       .  A
C293        C298   1.397       .  A
C293        H996   1.084       .  S
C294        C295   1.414       .  A
C295        C296   1.416       .  A
C295        N302   1.437       .  S
C296        C297   1.411       .  A
C296        H301   1.078       .  S
C297        C298   1.421       .  A
C298        N995   1.435   1_455  S
N299        C994   1.434       .  S
N299        H303   1.046       .  S
N299        H304   1.046       .  S
H300        C989   1.084       .  S
N302        H305   1.046       .  S
N302        H306   1.045       .  S
C307        C308   1.398       .  A
C307        C312   1.405       .  A
C307        H314   1.084       .  S
C308        C309   1.408       .  A
C309        C310   1.396       .  A
C309        N316   1.437       .  S
C310        C311   1.401       .  A
C310        H315   1.084       .  S
C311        C312   1.416       .  A
C312        N313   1.436       .  S
N313        H317   1.046       .  S
N313        H318   1.044       .  S
N316        H319   1.045       .  S
N316        H320   1.044       .  S
C321        C322   1.402       .  A
C321        C326   1.401       .  A
C321        H328   1.084       .  S
C322        C323   1.411       .  A
C323        C324   1.409       .  A
C323        N330   1.437       .  S
C324        C325   1.402       .  A
C324        H329   1.084       .  S
C325        C326   1.417       .  A
C326        N327   1.439       .  S
N327        H331   1.045       .  S
N327        H332   1.044       .  S
N330        H333   1.045       .  S
N330        H334   1.046       .  S
C335        C336   1.415       .  A
C335        C340   1.409       .  A
C335        H342   1.077       .  S
C336        C685   1.419   1_554  A
C337        C338   1.409       .  A
C337        C684   1.421       .  A
C337        N344   1.439       .  S
C338        C687   1.407       .  A
C338        H343   1.083       .  S
C339        C340   1.410       .  A
C339        C686   1.408   1_554  A
C340        N341   1.433       .  S
N341        H345   1.046       .  S
N341        H346   1.046       .  S
N344        H347   1.044   1_455  S
N344        H348   1.045       .  S
C349        C350   1.540       .  S
C349        C353   1.549       .  S
C349        C684   1.547       .  S
C350        H357   1.081       .  S
C350        C351   1.363       .  D
C351        C673   1.481       .  S
C352        C356   1.533       .  S
C352        H358   1.105       .  S
C353        H359   1.081       .  S
C353        C354   1.383       .  D
C355        H360   1.087       .  S
C355        C356   1.358       .  D
C356        C656   1.478       .  S
C361       C1058   1.529   1_455  S
C361        C367   1.527       .  S
C361        C365   1.553       .  S
C361        C645   1.537       .  S
C362       C1057   1.529       .  S
C362        C363   1.360   1_556  D
C363       C1060   1.539   1_554  S
C364       C1059   1.536   1_556  S
C364       C1064   1.540       .  S
C364        C366   1.541   1_655  S
C364       H1066   1.105       .  S
C365        H371   1.078       .  S
C365        C366   1.385       .  D
C367       H1068   1.086       .  S
C367       C1064   1.360   1_455  D
C368       C1060   1.543       .  S
C368       C1063   1.362       .  D
C368        C617   1.494       .  S
H370       C1060   1.105       .  S
H372       C1063   1.086       .  S
Zr373       O374   2.441       .  S
Zr373       O375   2.433       .  S
Zr373       O376   2.465       .  S
Zr373       O379   2.437       .  S
Zr373       O381   2.385       .  S
Zr373       O382   2.387       .  S
Zr373       O383   2.406       .  S
Zr373       O384   2.409       .  S
O374        H430   0.990       .  S
O374        H438   0.990       .  S
O375        C395   1.285       .  A
O376        C397   1.291       .  A
O377       Zr387   2.439       .  S
O377        C396   1.285       .  A
O378       Zr386   2.429       .  S
O378        C397   1.284       .  A
O379        C396   1.285       .  A
O380       Zr388   2.402       .  S
O380        C395   1.277       .  A
O381       Zr386   2.390       .  S
O381       Zr388   2.378       .  S
O382       Zr387   2.391       .  S
O382       Zr388   2.376       .  S
O382        H417   0.966       .  S
O383       Zr386   2.399       .  S
O383       Zr403   2.395       .  S
O383        H420   0.966       .  S
O384       Zr387   2.390       .  S
O384       Zr403   2.392       .  S
Zr385       O410   2.442       .  S
Zr385       O404   2.437       .  S
Zr385       O412   2.452       .  S
Zr385       O400   2.453       .  S
Zr385       O391   2.391       .  S
Zr385       O392   2.410       .  S
Zr385       O393   2.379       .  S
Zr385       O394   2.394       .  S
Zr386       O405   2.434       .  S
Zr386       O398   2.435       .  S
Zr386       O399   2.426       .  S
Zr386       O392   2.396       .  S
Zr386       O393   2.391       .  S
Zr387       O389   2.435       .  S
Zr387       O411   2.439       .  S
Zr387       O413   2.436       .  S
Zr387       O391   2.388       .  S
Zr387       O394   2.401       .  S
Zr388       O414   2.435       .  S
Zr388       O415   2.435       .  S
Zr388       O390   2.436       .  S
Zr388       O391   2.375       .  S
Zr388       O392   2.387       .  S
O389        H426   0.990       .  S
O390        H421   0.990       .  S
O390        H435   0.990       .  S
O392        H418   0.965       .  S
O393       Zr403   2.375       .  S
O394       Zr403   2.384       .  S
O394        H419   0.965       .  S
C395        C631   1.487       .  S
C396        C670   1.476       .  S
C397        C586   1.501       .  S
O398        H434   0.990       .  S
O399        C401   1.284       .  A
O400        C401   1.285       .  A
C401        C614   1.480       .  S
O402       Zr403   2.434       .  S
O402        H431   0.990       .  S
Zr403       O406   2.436       .  S
Zr403       O407   2.437       .  S
Zr403       O408   2.415       .  S
O404        C409   1.283       .  A
O405        H422   0.990       .  S
O405        H437   0.990       .  S
O406        H423   0.990       .  S
O407        H427   0.990       .  S
O407        H436   0.990       .  S
O408        C409   1.282       .  A
C409        C659   1.491       .  S
O410        H429   0.991       .  S
O410        H433   0.990       .  S
O411        H425   0.990       .  S
O411        H432   0.990       .  S
O412        C416   1.289       .  A
O413        C416   1.284       .  A
O414        H424   0.990       .  S
O415        H428   0.990       .  S
C416        C603   1.487       .  S
C439        C440   1.532       .  S
C439        C445   1.525       .  S
C439        C443   1.558       .  S
C439        C600   1.542       .  S
C440        H447   1.087       .  S
C440        C441   1.363       .  D
C441        C442   1.542   1_545  S
C441        C572   1.483       .  S
C442        C446   1.550   1_565  S
C442        C444   1.541       .  S
C442        H448   1.105       .  S
C443        H449   1.078       .  S
C443        C444   1.384   1_545  D
C444        C456   1.515       .  S
C445        H450   1.086       .  S
C445        C446   1.359       .  D
C446        C558   1.495       .  S
C451        C452   1.535       .  S
C451        C457   1.536       .  S
C451        C455   1.548       .  S
C451        C589   1.549       .  S
C452        H459   1.079       .  S
C452        C453   1.365       .  D
C453        C454   1.546       .  S
C453        C544   1.496       .  S
C454        C458   1.537       .  S
C454        C456   1.543       .  S
C454        H460   1.105       .  S
C455        H461   1.082       .  S
C455        C456   1.384       .  D
C457        H462   1.087       .  S
C457        C458   1.356       .  D
C458        C530   1.471       .  S
Zr463       O464   2.439       .  S
Zr463       O465   2.428       .  S
Zr463       O466   2.463       .  S
Zr463       O469   2.445       .  S
Zr463       O471   2.384       .  S
Zr463       O472   2.383   1_545  S
O464        H520   0.991       .  S
O464        H528   0.990       .  S
O465       C1181   1.284   1_455  A
O466        C487   1.290       .  A
O467       Zr477   2.437       .  S
O467        C486   1.286       .  A
O468       Zr476   2.426       .  S
O469        C486   1.286   1_545  A
O470       Zr478   2.418       .  S
O470        C485   1.282       .  A
O471      Zr1174   2.375   1_445  S
O472       Zr477   2.385       .  S
O472      Zr1174   2.374   1_455  S
O472        H507   0.966       .  S
O473       Zr476   2.393       .  S
O473       Zr493   2.397       .  S
O473        H510   0.966       .  S
O474       Zr493   2.395   1_565  S
Zr475      O1196   2.443       .  S
Zr475       O494   2.440       .  S
Zr475       O502   2.442       .  S
Zr475      O1186   2.445       .  S
Zr475       O481   2.394       .  S
Zr475      O1178   2.413   1_455  S
Zr475       O483   2.380       .  S
Zr475       O484   2.391       .  S
Zr476       O495   2.436       .  S
Zr476      O1184   2.434   1_455  S
Zr476      O1185   2.422   1_455  S
Zr476      O1178   2.399   1_445  S
Zr476       O483   2.392   1_545  S
Zr477       O501   2.440       .  S
Zr478       O504   2.436       .  S
Zr478       O505   2.437       .  S
Zr478       O480   2.437       .  S
Zr478      O1167   2.380   1_565  S
Zr478      O1168   2.380       .  S
Zr478       O829   2.381       .  S
O480        H511   0.990       .  S
O480        H525   0.990       .  S
O481       Zr826   2.380   1_456  S
O482      Zr1171   2.410       .  S
O482      Zr1172   2.396   1_565  S
O482        H508   0.964       .  S
O483       Zr493   2.377   1_565  S
O484       Zr493   2.386   1_565  S
O484        H509   0.967       .  S
C485       O1161   1.284   1_565  A
C485        C575   1.491   1_565  S
C486        C547   1.484       .  S
C487        C687   1.497       .  S
O488      Zr1172   2.435       .  S
O488        H524   0.990       .  S
O489      Zr1172   2.418       .  S
O489        C491   1.282   1_545  A
O490      Zr1171   2.464       .  S
O490        C491   1.288       .  A
C491        C561   1.485       .  S
O492       Zr493   2.439       .  S
O492        H521   0.990       .  S
Zr493       O496   2.437       .  S
Zr493       O497   2.439   1_545  S
Zr493       O498   2.414   1_545  S
O494        C499   1.284       .  A
O495        H512   0.990       .  S
O495        H527   0.990       .  S
O496        H513   0.990       .  S
O497        H517   0.990       .  S
O497        H526   0.990       .  S
O498        C499   1.282       .  A
C499        C533   1.492       .  S
O500      Zr1171   2.440       .  S
O500        H519   0.991       .  S
O500        H523   0.990       .  S
O501        H515   0.990       .  S
O501        H522   0.989       .  S
O502        C506   1.287       .  A
O503        C506   1.285       .  A
O504        H514   0.990       .  S
C506        C642   1.487       .  S
C529        C530   1.397       .  A
C529        C534   1.407       .  A
C529        H536   1.084       .  S
C530        C531   1.406       .  A
C531        C532   1.400       .  A
C531        N538   1.437       .  S
C532        C533   1.406       .  A
C532        H537   1.083       .  S
C533        C534   1.419       .  A
C534        N535   1.433       .  S
N535        H539   1.046       .  S
N535        H540   1.038       .  S
N538        H541   1.045       .  S
N538        H542   1.043       .  S
C543        C544   1.407       .  A
C543        C548   1.402       .  A
C543        H550   1.084       .  S
C544        C545   1.414       .  A
C545        C546   1.415       .  A
C545        N552   1.437       .  S
C546        C547   1.406       .  A
C546        H551   1.084       .  S
C547        C548   1.408       .  A
C548        N549   1.438       .  S
N549        H553   1.046       .  S
N549        H554   1.045       .  S
N552        H555   1.045       .  S
N552        H556   1.045       .  S
C557        C558   1.403   1_565  A
C557        C562   1.399       .  A
C557        H564   1.083       .  S
C558        C559   1.427       .  A
C559        C560   1.401       .  A
C559        N566   1.438       .  S
C560        C561   1.401   1_545  A
C560        H565   1.084       .  S
C561        C562   1.411       .  A
C562       N1259   1.424       .  S
N563       C1258   1.426   1_455  S
N563        H567   1.044       .  S
N563        H568   1.046       .  S
N566        H569   1.041       .  S
N566        H570   1.046       .  S
C571        C572   1.399   1_565  A
C571        C576   1.403       .  A
C571        H578   1.079       .  S
C572        C573   1.406       .  A
C573        C574   1.403       .  A
C573        N580   1.432       .  S
C574        C575   1.409       .  A
C574        H579   1.083       .  S
C575        C576   1.420   1_545  A
C576        N577   1.438       .  S
N577        H581   1.046       .  S
N577        H582   1.046       .  S
N580        H583   1.046       .  S
N580        H584   1.045       .  S
C585        C586   1.406       .  A
C585        C590   1.414       .  A
C585        H592   1.083       .  S
C586        C587   1.417       .  A
C587        C588   1.404       .  A
C587        N594   1.432       .  S
C588        C589   1.407       .  A
C588        H593   1.084       .  S
C589        C590   1.422       .  A
C590        N591   1.436       .  S
N591        H595   1.046       .  S
N591        H596   1.045       .  S
N594        H597   1.046       .  S
N594        H598   1.045       .  S
C599        C600   1.413       .  A
C599        C604   1.417       .  A
C599        H606   1.078       .  S
C600        C601   1.420       .  A
C601        C602   1.397       .  A
C601        N608   1.434       .  S
C602        C603   1.398       .  A
C602        H607   1.085       .  S
C603        C604   1.414       .  A
C604        N605   1.437       .  S
N605        H609   1.046       .  S
N605        H610   1.045       .  S
N608        H611   1.046       .  S
N608        H612   1.046       .  S
C613        C614   1.404       .  A
C613        C618   1.412       .  A
C613        H620   1.083       .  S
C614        C615   1.408       .  A
C615        C616   1.402       .  A
C615        N622   1.438       .  S
C616        C617   1.407       .  A
C616       H1317   1.083       .  S
C617        C618   1.415       .  A
C618        N619   1.437       .  S
N619        H623   1.046       .  S
N619        H624   1.045       .  S
H621       C1312   1.082   1_455  S
N622        H625   1.045       .  S
N622       H1322   1.046       .  S
H626       N1318   1.046   1_455  S
C627        C628   1.397       .  A
C627        C632   1.390       .  A
C627       H1330   1.082       .  S
C628        C629   1.410       .  A
C629        C630   1.405       .  A
C629        N636   1.438       .  S
C630        C631   1.408       .  A
C630        H635   1.083       .  S
C631        C632   1.424       .  A
C632        N633   1.433       .  S
N633       H1333   1.045       .  S
N633        H638   1.045       .  S
H634       C1323   1.082       .  S
N636        H640   1.046       .  S
H637       N1329   1.045       .  S
C641        C642   1.400       .  A
C641        C646   1.398       .  A
C641       H1344   1.084       .  S
C642        C643   1.414       .  A
C643        C644   1.414       .  A
C643        N650   1.437       .  S
C644        C645   1.410       .  A
C644        H649   1.078       .  S
C645        C646   1.421       .  A
C646       N1343   1.435   1_455  S
N647       C1342   1.434       .  S
N647        H651   1.046       .  S
N647        H652   1.046       .  S
H648       C1337   1.084       .  S
N650        H653   1.045       .  S
N650        H654   1.045       .  S
C655        C656   1.400       .  A
C655        C660   1.410       .  A
C655        H662   1.084       .  S
C656        C657   1.408       .  A
C657        C658   1.399       .  A
C657        N664   1.435       .  S
C658        C659   1.406       .  A
C658        H663   1.083       .  S
C659        C660   1.419       .  A
C660        N661   1.437       .  S
N661        H665   1.046       .  S
N661        H666   1.045       .  S
N664        H667   1.046       .  S
N664        H668   1.045       .  S
C669        C670   1.401       .  A
C669        C674   1.401       .  A
C669        H676   1.084       .  S
C670        C671   1.411       .  A
C671        C672   1.409       .  A
C671        N678   1.438       .  S
C672        C673   1.403       .  A
C672        H677   1.084       .  S
C673        C674   1.416       .  A
C674        N675   1.439       .  S
N675        H679   1.045       .  S
N675        H680   1.044       .  S
N678        H681   1.045       .  S
N678        H682   1.046       .  S
C683        C684   1.413       .  A
C683        C688   1.407       .  A
C683        H690   1.077       .  S
C685        C686   1.410       .  A
C685        N692   1.439       .  S
C686        H691   1.083       .  S
C687        C688   1.409       .  A
C688        N689   1.432       .  S
N689        H693   1.046       .  S
N689        H694   1.045       .  S
N692        H695   1.044   1_455  S
N692        H696   1.045       .  S
C697        C698   1.539       .  S
C697       C1051   1.536   1_554  S
C697        C701   1.551   1_554  S
C697       C1032   1.547       .  S
C698        H705   1.081       .  S
C698        C699   1.361       .  D
C699       C1048   1.535   1_554  S
C699       C1021   1.476       .  S
C700       C1047   1.535       .  S
C700        C704   1.531       .  S
C700       C1050   1.540       .  S
C700        H706   1.106       .  S
C701        H707   1.082       .  S
C701        C702   1.384       .  D
C702       C1048   1.543       .  S
C702       C1062   1.513       .  S
C703       C1045   1.535       .  S
C703        H708   1.087       .  S
C703        C704   1.356       .  D
C704       C1004   1.470       .  S
C709        C715   1.528       .  S
C709        C713   1.552       .  S
C709        C993   1.538       .  S
C710       H1065   1.086       .  S
C710        C711   1.360       .  D
C711       C1324   1.478       .  S
C712        C714   1.545       .  S
C713        H719   1.078       .  S
C713        C714   1.386       .  D
C714       C1050   1.510       .  S
C716        C965   1.486       .  S
H717       C1058   1.086   1_554  S
Zr721       O722   2.440       .  S
Zr721       O723   2.438       .  S
Zr721       O724   2.463       .  S
Zr721       O727   2.423       .  S
Zr721       O729   2.376       .  S
Zr721       O730   2.388       .  S
Zr721       O731   2.403       .  S
Zr721       O732   2.411       .  S
O722        H778   0.991       .  S
O722        H786   0.990       .  S
O723        C743   1.285       .  A
O724        C745   1.290       .  A
O725       Zr735   2.435       .  S
O725        C744   1.284       .  A
O726       Zr734   2.422       .  S
O726        C745   1.282       .  A
O727        C744   1.282       .  A
O728       Zr736   2.401       .  S
O728        C743   1.276       .  A
O729       Zr734   2.390       .  S
O729       Zr736   2.375       .  S
O730       Zr735   2.394       .  S
O730       Zr736   2.380       .  S
O730        H765   0.967       .  S
O731       Zr734   2.397       .  S
O731       Zr751   2.396       .  S
O731        H768   0.965       .  S
O732       Zr735   2.388       .  S
O732       Zr751   2.394       .  S
Zr733       O758   2.441       .  S
Zr733       O752   2.434       .  S
Zr733       O760   2.450       .  S
Zr733       O748   2.445       .  S
Zr733       O739   2.390       .  S
Zr733       O740   2.408       .  S
Zr733       O741   2.378       .  S
Zr733       O742   2.389       .  S
Zr734       O753   2.435       .  S
Zr734       O746   2.434       .  S
Zr734       O747   2.419       .  S
Zr734       O740   2.398       .  S
Zr734       O741   2.389       .  S
Zr735       O737   2.434       .  S
Zr735       O759   2.441       .  S
Zr735       O761   2.438       .  S
Zr735       O739   2.388       .  S
Zr735       O742   2.395       .  S
Zr736       O762   2.436       .  S
Zr736       O763   2.436       .  S
Zr736       O738   2.438       .  S
Zr736       O739   2.376       .  S
Zr736       O740   2.390       .  S
O737        H774   0.990       .  S
O738        H769   0.990       .  S
O738        H783   0.990       .  S
O740        H766   0.965       .  S
O741       Zr751   2.377       .  S
O742       Zr751   2.389       .  S
O742        H767   0.965       .  S
C743        C979   1.489       .  S
C744       C1018   1.468       .  S
C745        C934   1.499       .  S
O746        H782   0.990       .  S
O747        C749   1.283       .  A
O748        C749   1.284       .  A
C749        C962   1.472       .  S
O750       Zr751   2.440       .  S
O750        H779   0.990       .  S
Zr751       O754   2.436       .  S
Zr751       O755   2.442       .  S
Zr751       O756   2.412       .  S
O752        C757   1.283       .  A
O753        H770   0.990       .  S
O753        H785   0.990       .  S
O754        H771   0.990       .  S
O755        H775   0.990       .  S
O755        H784   0.989       .  S
O756        C757   1.281       .  A
C757       C1007   1.480       .  S
O758        H777   0.991       .  S
O758        H781   0.990       .  S
O759        H773   0.991       .  S
O759        H780   0.990       .  S
O760        C764   1.289       .  A
O761        C764   1.285       .  A
O762        H772   0.990       .  S
O763        H776   0.990       .  S
C764        C951   1.487       .  S
C787        C788   1.530       .  S
C787        C793   1.524       .  S
C787        C791   1.559       .  S
C787        C948   1.540       .  S
C788        H795   1.087       .  S
C788        C789   1.361       .  D
C789        C790   1.542   1_545  S
C789        C920   1.482       .  S
C790        C794   1.547   1_565  S
C790        C792   1.538       .  S
C790        H796   1.104       .  S
C791        H797   1.079       .  S
C791        C792   1.386   1_545  D
C792        C804   1.512       .  S
C793        H798   1.085       .  S
C793        C794   1.358       .  D
C794        C906   1.491       .  S
C799        C800   1.532       .  S
C799        C805   1.534       .  S
C799        C803   1.549       .  S
C799        C937   1.548       .  S
C800        H807   1.078       .  S
C800        C801   1.363       .  D
C801        C802   1.544       .  S
C801        C892   1.490       .  S
C802        C806   1.535       .  S
C802        C804   1.539       .  S
C802        H808   1.105       .  S
C803        H809   1.082       .  S
C803        C804   1.387       .  D
C805        H810   1.087       .  S
C805        C806   1.354       .  D
C806        C878   1.467       .  S
Zr811       O812   2.440       .  S
Zr811       O813   2.430       .  S
Zr811       O814   2.464       .  S
Zr811       O817   2.435   1_545  S
Zr811       O819   2.382       .  S
Zr811       O820   2.388   1_545  S
Zr811      O1169   2.403   1_554  S
Zr811      O1170   2.413   1_544  S
O812        H868   0.990       .  S
O812        H876   0.990       .  S
O814        C835   1.290   1_554  A
O815       Zr825   2.429       .  S
O815        C834   1.284       .  A
O816       Zr824   2.424       .  S
O816       C1183   1.284       .  A
O817        C834   1.284       .  A
O818       Zr826   2.418       .  S
O818        C833   1.281       .  A
O819      Zr1172   2.395   1_554  S
O820       Zr825   2.390       .  S
O820        H855   0.966       .  S
O821      Zr1159   2.404       .  S
O821       Zr824   2.396       .  S
O821       Zr841   2.398       .  S
O821        H858   0.966       .  S
O822      Zr1159   2.410   1_565  S
O822      Zr1173   2.390       .  S
O822       Zr841   2.395   1_565  S
Zr823       O842   2.433       .  S
Zr823       O850   2.441       .  S
Zr823       O829   2.398       .  S
Zr823       O831   2.379       .  S
Zr823       O832   2.390       .  S
Zr824       O843   2.435       .  S
Zr824      O1167   2.392       .  S
Zr824       O831   2.393   1_545  S
Zr825      O1175   2.436   1_554  S
Zr825       O849   2.439       .  S
Zr825      O1199   2.429   1_554  S
Zr825      O1170   2.390   1_554  S
Zr825      O1177   2.391   1_554  S
Zr825      O1180   2.392   1_554  S
Zr826       O852   2.436       .  S
Zr826       O853   2.437   1_554  S
Zr826       O828   2.436       .  S
Zr826      O1178   2.395   1_554  S
O827      Zr1173   2.434       .  S
O827       H1212   0.990       .  S
O828        H859   0.990       .  S
O828        H873   0.990   1_565  S
O829      Zr1173   2.392       .  S
O830      Zr1174   2.392       .  S
O830        H856   0.964       .  S
O831       Zr841   2.379   1_565  S
O832      Zr1173   2.393       .  S
O832       Zr841   2.385   1_565  S
O832        H857   0.967       .  S
C833        C923   1.490   1_565  S
C834        C895   1.476       .  S
C835       O1164   1.282       .  A
C835       C1035   1.496   1_556  S
O836        H872   0.990       .  S
O837        C839   1.282   1_545  A
O838        C839   1.285   1_455  A
C839        C909   1.479       .  S
O840       Zr841   2.439       .  S
O840        H869   0.990       .  S
Zr841       O844   2.437       .  S
Zr841       O845   2.441   1_545  S
Zr841       O846   2.413   1_545  S
O842        C847   1.283       .  A
O843        H860   0.990       .  S
O843        H875   0.990       .  S
O844        H861   0.990       .  S
O845        H865   0.990       .  S
O845        H874   0.989       .  S
O846        C847   1.281       .  A
C847        C881   1.486       .  S
O848        H867   0.991   1_455  S
O848        H871   0.990       .  S
O849        H863   0.991       .  S
O849        H870   0.990       .  S
O850        C854   1.287       .  A
O851      Zr1173   2.437       .  S
O851        C854   1.285       .  A
O852        H862   0.990       .  S
O853       H1214   0.990       .  S
C854        C990   1.485       .  S
H864       O1175   0.990   1_554  S
H866       O1201   0.990       .  S
C877        C878   1.394       .  A
C877        C882   1.403       .  A
C877        H884   1.084       .  S
C878        C879   1.409       .  A
C879        C880   1.401       .  A
C879        N886   1.438       .  S
C880        C881   1.406       .  A
C880        H885   1.084       .  S
C881        C882   1.417       .  A
C882        N883   1.433       .  S
N883        H887   1.046       .  S
N883        H888   1.039       .  S
N886        H889   1.045       .  S
N886        H890   1.044       .  S
C891        C892   1.406       .  A
C891        C896   1.399       .  A
C891        H898   1.084       .  S
C892        C893   1.412       .  A
C893        C894   1.412       .  A
C893        N900   1.436       .  S
C894        C895   1.406       .  A
C894        H899   1.084       .  S
C895        C896   1.408       .  A
C896        N897   1.439       .  S
N897        H901   1.046       .  S
N897        H902   1.045       .  S
N900        H903   1.045       .  S
N900        H904   1.045       .  S
C905        C906   1.402   1_565  A
C905        C910   1.396       .  A
C905        H912   1.082       .  S
C906        C907   1.426       .  A
C907        C908   1.398       .  A
C907        N914   1.438       .  S
C908        C909   1.399   1_545  A
C908        H913   1.084       .  S
C909        C910   1.411       .  A
N911        H915   1.045       .  S
N911        H916   1.046       .  S
N914        H917   1.042       .  S
N914        H918   1.046       .  S
C919        C920   1.398   1_565  A
C919        C924   1.401       .  A
C919        H926   1.079       .  S
C920        C921   1.408       .  A
C921        C922   1.404       .  A
C921        N928   1.432       .  S
C922        C923   1.408       .  A
C922        H927   1.084   1_655  S
C923        C924   1.420   1_545  A
C924        N925   1.438       .  S
N925        H929   1.046       .  S
N925        H930   1.046       .  S
N928        H931   1.046   1_655  S
N928        H932   1.045       .  S
C933        C934   1.405       .  A
C933        C938   1.412       .  A
C933        H940   1.083       .  S
C934        C935   1.417       .  A
C935        C936   1.404       .  A
C935        N942   1.432       .  S
C936        C937   1.407       .  A
C936        H941   1.084       .  S
C937        C938   1.423       .  A
C938        N939   1.436       .  S
N939        H943   1.046       .  S
N939        H944   1.045       .  S
N942        H945   1.046       .  S
N942        H946   1.046       .  S
C947        C948   1.411       .  A
C947        C952   1.417       .  A
C947        H954   1.078       .  S
C948        C949   1.421       .  A
C949        C950   1.397       .  A
C949        N956   1.434       .  S
C950        C951   1.398       .  A
C950        H955   1.085       .  S
C951        C952   1.414       .  A
C952        N953   1.437       .  S
N953        H957   1.046       .  S
N953        H958   1.045       .  S
N956        H959   1.046       .  S
N956        H960   1.046       .  S
C961        C962   1.401       .  A
C961        C966   1.408       .  A
C961        H968   1.081       .  S
C962        C963   1.406       .  A
C963        C964   1.400       .  A
C963        N970   1.438       .  S
C964        C965   1.405       .  A
C965        C966   1.414       .  A
C966        N967   1.437       .  S
N967        H971   1.046       .  S
N967        H972   1.045       .  S
N970        H973   1.046       .  S
C975        C976   1.397       .  A
C975        C980   1.390       .  A
C976       C1059   1.478       .  S
C976        C977   1.409       .  A
C977        C978   1.405       .  A
C977        N984   1.438       .  S
C978        C979   1.409       .  A
C978        H983   1.083       .  S
C979        C980   1.424       .  A
C980        N981   1.433       .  S
N981        H986   1.045       .  S
N984       H1335   1.045       .  S
N984        H988   1.045       .  S
H987       N1332   1.045       .  S
C989        C990   1.397       .  A
C989        C994   1.395       .  A
C990        C991   1.413       .  A
C991        C992   1.416       .  A
C991        N998   1.437       .  S
C992        C993   1.411       .  A
C992        H997   1.078       .  S
C993        C994   1.421       .  A
N995        H999   1.046       .  S
N995       H1000   1.046       .  S
N998       H1001   1.046       .  S
N998       H1002   1.045       .  S
C1003      C1004   1.398       .  A
C1003      C1008   1.407       .  A
C1003      H1010   1.084       .  S
C1004      C1005   1.409       .  A
C1005      C1006   1.398       .  A
C1005      N1012   1.438       .  S
C1006      C1007   1.403       .  A
C1006      H1011   1.084       .  S
C1007      C1008   1.415       .  A
C1008      N1009   1.436       .  S
N1009      H1013   1.046       .  S
N1009      H1014   1.045       .  S
N1012      H1015   1.045       .  S
N1012      H1016   1.045       .  S
C1017      C1018   1.401       .  A
C1017      C1022   1.398       .  A
C1017      H1024   1.084       .  S
C1018      C1019   1.410       .  A
C1019      C1020   1.407       .  A
C1019      N1026   1.438       .  S
C1020      C1021   1.402       .  A
C1020      H1025   1.084       .  S
C1021      C1022   1.413       .  A
C1022      N1023   1.434       .  S
N1023      H1027   1.044       .  S
N1023      H1028   1.046       .  S
N1026      H1029   1.046       .  S
N1026      H1030   1.046       .  S
C1031      C1032   1.414       .  A
C1031      C1036   1.407       .  A
C1031      H1038   1.077       .  S
C1032      C1381   1.420   1_554  A
C1033      C1380   1.420       .  A
C1033      C1034   1.410       .  A
C1033      N1040   1.438       .  S
C1034      C1383   1.408       .  A
C1034      H1039   1.083       .  S
C1035      C1382   1.408   1_554  A
C1035      C1036   1.408       .  A
C1036      N1037   1.432       .  S
N1037      H1041   1.046       .  S
N1037      H1042   1.046       .  S
N1040      H1043   1.045       .  S
N1040      H1044   1.045       .  S
C1045      C1046   1.540       .  S
C1045      C1049   1.551       .  S
C1045      C1380   1.549       .  S
C1046      H1053   1.080       .  S
C1046      C1047   1.361       .  D
C1047      C1369   1.478       .  S
C1048      C1052   1.534       .  S
C1048      H1054   1.105       .  S
C1049      H1055   1.081       .  S
C1049      C1050   1.385       .  D
C1051      H1056   1.087       .  S
C1051      C1052   1.356       .  D
C1052      C1352   1.473       .  S
C1057      C1063   1.528       .  S
C1057      C1061   1.552       .  S
C1057      C1341   1.540       .  S
C1058      C1059   1.360   1_556  D
C1060      C1062   1.546       .  S
C1061      H1067   1.077       .  S
C1061      C1062   1.385       .  D
C1064      C1313   1.487       .  S
Zr1069     O1070   2.441       .  S
Zr1069     O1071   2.431       .  S
Zr1069     O1072   2.461       .  S
Zr1069     O1075   2.435       .  S
Zr1069     O1077   2.385       .  S
Zr1069     O1078   2.388       .  S
Zr1069     O1079   2.401       .  S
Zr1069     O1080   2.406       .  S
O1070      H1126   0.990       .  S
O1070      H1134   0.990       .  S
O1071      C1091   1.285       .  A
O1072      C1093   1.290       .  A
O1073     Zr1083   2.436       .  S
O1073      C1092   1.285       .  A
O1074     Zr1082   2.426       .  S
O1074      C1093   1.283       .  A
O1075      C1092   1.285       .  A
O1076     Zr1084   2.405       .  S
O1076      C1091   1.277       .  A
O1077     Zr1082   2.391       .  S
O1077     Zr1084   2.377       .  S
O1078     Zr1083   2.389       .  S
O1078     Zr1084   2.377       .  S
O1078      H1113   0.966       .  S
O1079     Zr1082   2.395       .  S
O1079     Zr1099   2.392       .  S
O1079      H1116   0.965       .  S
O1080     Zr1083   2.388       .  S
O1080     Zr1099   2.388       .  S
Zr1081     O1106   2.442       .  S
Zr1081     O1100   2.429       .  S
Zr1081     O1108   2.447       .  S
Zr1081     O1096   2.443       .  S
Zr1081     O1087   2.390       .  S
Zr1081     O1088   2.413       .  S
Zr1081     O1089   2.382       .  S
Zr1081     O1090   2.391       .  S
Zr1082     O1101   2.436       .  S
Zr1082     O1094   2.435       .  S
Zr1082     O1095   2.421       .  S
Zr1082     O1088   2.400       .  S
Zr1082     O1089   2.389       .  S
Zr1083     O1085   2.435       .  S
Zr1083     O1107   2.439       .  S
Zr1083     O1109   2.432       .  S
Zr1083     O1087   2.389       .  S
Zr1083     O1090   2.397       .  S
Zr1084     O1110   2.436       .  S
Zr1084     O1111   2.436       .  S
Zr1084     O1086   2.436       .  S
Zr1084     O1087   2.379       .  S
Zr1084     O1088   2.391       .  S
O1085      H1122   0.990       .  S
O1086      H1117   0.990       .  S
O1086      H1131   0.990       .  S
O1088      H1114   0.965       .  S
O1089     Zr1099   2.377       .  S
O1090     Zr1099   2.387       .  S
O1090      H1115   0.965       .  S
C1091      C1327   1.487       .  S
C1092      C1366   1.473       .  S
C1093      C1282   1.500       .  S
O1094      H1130   0.990       .  S
O1095      C1097   1.283       .  A
O1096      C1097   1.284       .  A
C1097      C1310   1.471       .  S
O1098     Zr1099   2.437       .  S
O1098      H1127   0.990       .  S
Zr1099     O1102   2.436       .  S
Zr1099     O1103   2.440       .  S
Zr1099     O1104   2.410       .  S
O1100      C1105   1.281       .  A
O1101      H1118   0.990       .  S
O1101      H1133   0.990       .  S
O1102      H1119   0.990       .  S
O1103      H1123   0.990       .  S
O1103      H1132   0.990       .  S
O1104      C1105   1.281       .  A
C1105      C1355   1.486       .  S
O1106      H1125   0.991       .  S
O1106      H1129   0.990       .  S
O1107      H1121   0.990       .  S
O1107      H1128   0.990       .  S
O1108      C1112   1.288       .  A
O1109      C1112   1.283       .  A
O1110      H1120   0.990       .  S
O1111      H1124   0.990       .  S
C1112      C1299   1.486       .  S
C1135      C1136   1.527       .  S
C1135      C1141   1.525       .  S
C1135      C1139   1.554       .  S
C1135      C1296   1.536       .  S
C1136      H1143   1.086       .  S
C1136      C1137   1.360       .  D
C1137      C1138   1.544   1_545  S
C1137      C1268   1.481       .  S
C1138      C1142   1.546   1_565  S
C1138      C1140   1.542       .  S
C1138      H1144   1.105       .  S
C1139      H1145   1.078       .  S
C1139      C1140   1.385   1_545  D
C1140      C1152   1.511       .  S
C1141      H1146   1.085       .  S
C1141      C1142   1.358       .  D
C1142      C1254   1.491       .  S
C1147      C1148   1.535       .  S
C1147      C1153   1.537       .  S
C1147      C1151   1.549       .  S
C1147      C1285   1.548       .  S
C1148      H1155   1.079       .  S
C1148      C1149   1.363       .  D
C1149      C1150   1.546       .  S
C1149      C1240   1.495       .  S
C1150      C1154   1.537       .  S
C1150      C1152   1.541       .  S
C1150      H1156   1.105       .  S
C1151      H1157   1.082       .  S
C1151      C1152   1.385       .  D
C1153      H1158   1.087       .  S
C1153      C1154   1.356       .  D
C1154      C1226   1.474       .  S
Zr1159     O1160   2.440       .  S
Zr1159     O1161   2.432       .  S
Zr1159     O1162   2.461       .  S
Zr1159     O1165   2.436   1_545  S
Zr1159     O1167   2.383       .  S
Zr1159     O1168   2.389   1_545  S
O1160      H1216   0.990       .  S
O1160      H1224   0.990       .  S
O1162      C1183   1.290       .  A
O1163     Zr1173   2.441       .  S
O1163      C1182   1.286       .  A
O1164     Zr1172   2.415       .  S
O1165      C1182   1.284       .  A
O1166     Zr1174   2.415       .  S
O1166      C1181   1.281   1_565  A
O1168     Zr1173   2.392       .  S
O1168      H1203   0.967       .  S
O1169     Zr1172   2.398       .  S
O1169     Zr1189   2.394       .  S
O1169      H1206   0.966       .  S
O1170     Zr1189   2.397   1_565  S
Zr1171     O1190   2.440       .  S
Zr1171     O1198   2.447       .  S
Zr1171     O1177   2.398       .  S
Zr1171     O1179   2.379       .  S
Zr1171     O1180   2.393       .  S
Zr1172     O1191   2.437       .  S
Zr1172     O1179   2.392   1_545  S
Zr1173     O1197   2.439       .  S
Zr1174     O1200   2.434       .  S
Zr1174     O1201   2.436       .  S
Zr1174     O1176   2.438       .  S
O1176      H1207   0.990       .  S
O1176      H1221   0.990   1_565  S
O1178      H1204   0.965       .  S
O1179     Zr1189   2.381   1_565  S
O1180     Zr1189   2.387   1_565  S
O1180      H1205   0.967       .  S
C1181      C1271   1.485       .  S
C1182      C1243   1.482       .  S
C1183      C1383   1.500       .  S
O1184      H1220   0.990       .  S
O1185      C1187   1.283   1_545  A
O1186      C1187   1.284   1_455  A
C1187      C1257   1.478       .  S
O1188     Zr1189   2.440       .  S
O1188      H1217   0.990       .  S
Zr1189     O1192   2.437       .  S
Zr1189     O1193   2.441   1_545  S
Zr1189     O1194   2.423   1_545  S
O1190      C1195   1.285       .  A
O1191      H1208   0.990       .  S
O1191      H1223   0.990       .  S
O1192      H1209   0.990       .  S
O1193      H1213   0.990       .  S
O1193      H1222   0.989       .  S
O1194      C1195   1.283       .  A
C1195      C1229   1.492       .  S
O1196      H1215   0.991   1_455  S
O1196      H1219   0.990       .  S
O1197      H1211   0.991       .  S
O1197      H1218   0.990       .  S
O1198      C1202   1.288       .  A
O1199      C1202   1.283       .  A
O1200      H1210   0.990       .  S
C1202      C1338   1.487       .  S
C1225      C1226   1.394       .  A
C1225      C1230   1.405       .  A
C1225      H1232   1.083       .  S
C1226      C1227   1.409       .  A
C1227      C1228   1.405       .  A
C1227      N1234   1.438       .  S
C1228      C1229   1.406       .  A
C1228      H1233   1.084       .  S
C1229      C1230   1.418       .  A
C1230      N1231   1.432       .  S
N1231      H1235   1.046       .  S
N1231      H1236   1.039       .  S
N1234      H1237   1.045       .  S
N1234      H1238   1.043       .  S
C1239      C1240   1.408       .  A
C1239      C1244   1.404       .  A
C1239      H1246   1.084       .  S
C1240      C1241   1.412       .  A
C1241      C1242   1.413       .  A
C1241      N1248   1.436       .  S
C1242      C1243   1.406       .  A
C1242      H1247   1.084       .  S
C1243      C1244   1.409       .  A
C1244      N1245   1.438       .  S
N1245      H1249   1.046       .  S
N1245      H1250   1.045       .  S
N1248      H1251   1.045       .  S
N1248      H1252   1.045       .  S
C1253      C1254   1.403   1_565  A
C1253      C1258   1.398       .  A
C1253      H1260   1.083       .  S
C1254      C1255   1.426       .  A
C1255      C1256   1.398       .  A
C1255      N1262   1.438       .  S
C1256      C1257   1.398   1_545  A
C1256      H1261   1.084       .  S
C1257      C1258   1.411       .  A
N1259      H1263   1.045       .  S
N1259      H1264   1.045       .  S
N1262      H1265   1.041       .  S
N1262      H1266   1.045       .  S
C1267      C1268   1.398   1_565  A
C1267      C1272   1.399       .  A
C1267      H1274   1.079       .  S
C1268      C1269   1.410       .  A
C1269      C1270   1.402       .  A
C1269      N1276   1.433       .  S
C1270      C1271   1.407       .  A
C1270      H1275   1.084   1_655  S
C1271      C1272   1.418   1_545  A
C1272      N1273   1.438       .  S
N1273      H1277   1.046       .  S
N1273      H1278   1.046       .  S
N1276      H1279   1.046   1_655  S
N1276      H1280   1.046       .  S
C1281      C1282   1.405       .  A
C1281      C1286   1.412       .  A
C1281      H1288   1.083       .  S
C1282      C1283   1.417       .  A
C1283      C1284   1.404       .  A
C1283      N1290   1.432       .  S
C1284      C1285   1.407       .  A
C1284      H1289   1.084       .  S
C1285      C1286   1.422       .  A
C1286      N1287   1.436       .  S
N1287      H1291   1.046       .  S
N1287      H1292   1.045       .  S
N1290      H1293   1.046       .  S
N1290      H1294   1.046       .  S
C1295      C1296   1.411       .  A
C1295      C1300   1.417       .  A
C1295      H1302   1.078       .  S
C1296      C1297   1.419       .  A
C1297      C1298   1.394       .  A
C1297      N1304   1.435       .  S
C1298      C1299   1.398       .  A
C1298      H1303   1.084       .  S
C1299      C1300   1.416       .  A
C1300      N1301   1.437       .  S
N1301      H1305   1.046       .  S
N1301      H1306   1.045       .  S
N1304      H1307   1.046       .  S
N1304      H1308   1.046       .  S
C1309      C1310   1.401       .  A
C1309      C1314   1.408       .  A
C1309      H1316   1.082       .  S
C1310      C1311   1.406       .  A
C1311      C1312   1.401       .  A
C1311      N1318   1.438       .  S
C1312      C1313   1.406       .  A
C1313      C1314   1.414       .  A
C1314      N1315   1.437       .  S
N1315      H1319   1.045       .  S
N1315      H1320   1.045       .  S
N1318      H1321   1.045       .  S
C1323      C1324   1.396       .  A
C1323      C1328   1.389       .  A
C1324      C1325   1.410       .  A
C1325      C1326   1.406       .  A
C1325      N1332   1.438       .  S
C1326      C1327   1.409       .  A
C1326      H1331   1.083       .  S
C1327      C1328   1.424       .  A
C1328      N1329   1.433       .  S
N1329      H1334   1.045       .  S
N1332      H1336   1.046       .  S
C1337      C1338   1.398       .  A
C1337      C1342   1.397       .  A
C1338      C1339   1.415       .  A
C1339      C1340   1.416       .  A
C1339      N1346   1.437       .  S
C1340      C1341   1.412       .  A
C1340      H1345   1.078       .  S
C1341      C1342   1.420       .  A
N1343      H1347   1.046       .  S
N1343      H1348   1.046       .  S
N1346      H1349   1.045       .  S
N1346      H1350   1.046       .  S
C1351      C1352   1.400       .  A
C1351      C1356   1.408       .  A
C1351      H1358   1.084       .  S
C1352      C1353   1.407       .  A
C1353      C1354   1.395       .  A
C1353      N1360   1.435       .  S
C1354      C1355   1.404       .  A
C1354      H1359   1.083       .  S
C1355      C1356   1.419       .  A
C1356      N1357   1.437       .  S
N1357      H1361   1.046       .  S
N1357      H1362   1.045       .  S
N1360      H1363   1.046       .  S
N1360      H1364   1.045       .  S
C1365      C1366   1.402       .  A
C1365      C1370   1.399       .  A
C1365      H1372   1.084       .  S
C1366      C1367   1.410       .  A
C1367      C1368   1.408       .  A
C1367      N1374   1.438       .  S
C1368      C1369   1.402       .  A
C1368      H1373   1.084       .  S
C1369      C1370   1.414       .  A
C1370      N1371   1.434       .  S
N1371      H1375   1.044       .  S
N1371      H1376   1.046       .  S
N1374      H1377   1.045       .  S
N1374      H1378   1.046       .  S
C1379      C1380   1.414       .  A
C1379      C1384   1.407       .  A
C1379      H1386   1.076       .  S
C1381      C1382   1.409       .  A
C1381      N1388   1.439       .  S
C1382      H1387   1.083       .  S
C1383      C1384   1.410       .  A
C1384      N1385   1.432       .  S
N1385      H1389   1.046       .  S
N1385      H1390   1.046       .  S
N1388      H1391   1.044       .  S
N1388      H1392   1.045       .  S
