geometry optimzed in LAMMPS
_audit_creation_date              2020-11-30 
_audit_creation_method            'lammps2cif' 
_symmetry_space_group_name_H-M    'P1' 
_symmetry_Int_Tables_number       1 
_symmetry_cell_setting            triclinic 
loop_ 
_symmetry_equiv_pos_as_xyz 
  x,y,z 
_cell_length_a                    35.96651016 
_cell_length_b                    31.849815402141182 
_cell_length_c                    21.506086528492364 
_cell_angle_alpha                 93.84330517765291 
_cell_angle_beta                  91.82835186994255 
_cell_angle_gamma                 88.37169020582215 
loop_ 
_atom_site_label 
_atom_site_type_symbol 
_atom_site_fract_x 
_atom_site_fract_y 
_atom_site_fract_z 
_atom_site_charge 
N1          N  0.11902166  0.31228018  0.37501452    -0.00800
C2          C  0.13020635  0.31631125  0.31686995     0.01800
C3          C  0.09970355  0.32767845  0.28031870    -0.21100
C4          C  0.06928297  0.32806040  0.31816597    -0.21300
C5          C  0.08169391  0.31519239  0.37504197     0.01700
H6          H  0.09848757  0.32937661  0.23033487     0.15500
H7          H  0.04052786  0.33025673  0.30371064     0.15500
N8          N  0.35351626  0.12856126  0.05663535    -0.00800
C9          C  0.34444977  0.13765721  0.11778818     0.01800
C10         C  0.37500998  0.13877976  0.15768648    -0.21100
C11         C  0.40489142  0.13219292  0.12209256    -0.21300
C12         C  0.39194648  0.12794732  0.06072365     0.01700
H13         H  0.37562487  0.14771187  0.20721292     0.15500
H14         H  0.43341566  0.13550421  0.13903109     0.15500
O15         O  0.18730405  0.22923447  0.12488426    -0.75800
C16         C  0.17795569  0.13690136  0.19629554     0.85200
O17         O  0.19166895  0.28833030  0.32725225    -0.76900
O18         O  0.26418202  0.14481705  0.33580614    -0.78400
O19         O  0.30145777  0.19539809  0.13035978    -0.78200
O20         O  0.23378027  0.27444602  0.13329133    -0.76800
Zn21       Zn  0.18857239  0.21869527  0.21302322     1.55700
O22         O  0.29702681  0.14055320  0.18885114    -0.78200
Cd23       Cd  0.27144821  0.24194274  0.18510802     1.59700
Cd24       Cd  0.23631386  0.24591239  0.32366525     1.59600
O25         O  0.30453333  0.28353863  0.24285402    -0.78200
O26         O  0.23902312  0.21621387  0.24153721    -1.88700
Cd27       Cd  0.25283067  0.15594778  0.24359028     1.59900
O28         O  0.27817373  0.28443788  0.33562048    -0.78200
O29         O  0.21126097  0.12287461  0.19557028    -0.76800
C30         C  0.16188118  0.29024559  0.29404463     0.85700
C31         C  0.20094990  0.26445009  0.11504747     0.85400
O32         O  0.16927848  0.16571543  0.23617295    -0.75800
C33         C  0.31057094  0.15772110  0.14318964     0.86200
O34         O  0.15644404  0.26463629  0.24767559    -0.75900
C35         C  0.30301790  0.29593305  0.30083931     0.86300
C36         C  0.25878918  0.16515429  0.38828775     0.86600
O37         O  0.24503867  0.20278816  0.39257412    -0.78300
N38         N  0.16108591  0.33684372  0.45935028    -0.00800
C39         C  0.18895389  0.31898073  0.99388552     0.01800
C40         C  0.19296199  0.27684629  0.97108041    -0.21100
C41         C  0.16231343  0.26755192  0.43354770    -0.21300
C42         C  0.14358447  0.30528278  0.42647740     0.01700
H43         H  0.21183288  0.25334972  0.98946818     0.15500
H44         H  0.15624370  0.23740332  0.40965241     0.15500
N45         N  0.19247463  0.32847061  0.06108437    -0.00800
C46         C  0.17631207  0.36342319  0.08950328     0.01800
C47         C  0.14261907  0.35279168  0.11393532    -0.21100
C48         C  0.14423820  0.31009744  0.11733064    -0.21300
C49         C  0.17736711  0.29751101  0.09106503     0.01700
H50         H  0.12444151  0.37353578  0.14189457     0.15500
H51         H  0.12731739  0.29208659  0.14584603     0.15500
N52         N  0.15770586  0.38011376  0.44748417    -0.00800
C53         C  0.18932763  0.40222674  0.44124337     0.01800
C54         C  0.18998778  0.43672694  0.48372653    -0.21100
C55         C  0.15637622  0.43882676  0.51148271    -0.21300
C56         C  0.13650171  0.40527574  0.48636780     0.01700
H57         H  0.20953149  0.46208365  0.48571562     0.15500
H58         H  0.14575865  0.46441384  0.54100807     0.15500
N59         N  0.35813621  0.03637399  0.07543820    -0.00800
C60         C  0.34269916  0.04094403  0.13273009     0.01800
C61         C  0.37086448  0.54112203  0.17814068    -0.21100
C62         C  0.40373979  0.53365547  0.14816375    -0.21300
C63         C  0.39513531  0.03085178  0.08551773     0.01700
H64         H  0.36746427  0.54063601  0.22792231     0.15500
H65         H  0.43050311  0.52694142  0.16950153     0.15500
O66         O  0.15559858  0.49725918  0.23686911    -0.75800
C67         C  0.19903847  0.39361111  0.13003827     0.85200
O68         O  0.24130076  0.41004261  0.37815665    -0.76900
O69         O  0.31974905  0.40708004  0.19745009    -0.78400
O70         O  0.29089863  0.04191617  0.19832294    -0.78200
O71         O  0.19530867  0.04176162  0.20215577    -0.76800
Zn72       Zn  0.19362507  0.44896007  0.25378167     1.55700
O73         O  0.29475511  0.48971299  0.12420617    -0.78200
Cd74       Cd  0.24464264  0.02538167  0.24643834     1.59700
Cd75       Cd  0.27328131  0.44907582  0.32754042     1.59600
O76         O  0.24700494  0.05239222  0.33589174    -0.78200
O77         O  0.24538683  0.46407778  0.24974228    -1.88700
Cd78       Cd  0.27077766  0.44066084  0.17146942     1.59900
O79         O  0.27661872  0.00356774  0.39034186    -0.78200
O80         O  0.23217153  0.40298457  0.11626409    -0.76800
C81         C  0.20581264  0.40941473  0.38061423     0.85700
C82         C  0.16229643  0.52863449  0.20553700     0.85400
O83         O  0.18449170  0.40822365  0.18069825    -0.75800
C84         C  0.30614778  0.02473863  0.14976808     0.86200
O85         O  0.18455151  0.42340801  0.33731115    -0.75900
C86         C  0.26189766  0.04046252  0.38655930     0.86300
C87         C  0.33929921  0.40823913  0.24838164     0.86600
O88         O  0.32604799  0.42310230  0.30050450    -0.78300
N89         N  0.28525655  0.10533001  0.43896193    -0.00800
C90         C  0.26385383  0.14095308  0.44426119     0.01800
C91         C  0.23001467  0.13042906  0.46650827    -0.21100
C92         C  0.22862799  0.08712235  0.46242786    -0.21300
C93         C  0.26245528  0.07212891  0.44044138     0.01700
H94         H  0.20545192  0.15083962  0.46716886     0.15500
H95         H  0.20316561  0.06970239  0.46125999     0.15500
N96         N  0.33383789  0.09707758  0.51858791    -0.00800
C97         C  0.32435031  0.10146733  0.45691983     0.01800
C98         C  0.34236126  0.06938856  0.42162444    -0.21100
C99         C  0.35205464  0.03876533  0.46122313    -0.21300
C100        C  0.34452121  0.05560727  0.02024966     0.01700
H101        H  0.33923904  0.06342354  0.37159146     0.15500
H102        H  0.36293999  0.00749104  0.44824598     0.15500
N103        N  0.11661168  0.13448644  0.13676177    -0.00800
C104        C  0.10765201  0.14068796  0.07560050     0.01800
C105        C  0.13975954  0.13999031  0.04154972    -0.21100
C106        C  0.16909209  0.13434639  0.08230885    -0.21300
C107        C  0.15440939  0.13164173  0.13983440     0.01700
H108        H  0.14174931  0.14588228  0.99280984     0.15500
H109        H  0.19827700  0.13593413  0.07307527     0.15500
N110        N  0.36833521  0.30288728  0.32718388    -0.00800
C111        C  0.38654294  0.30844099  0.38244096     0.01800
C112        C  0.36384585  0.33026088  0.42470630    -0.21100
C113        C  0.33015530  0.33656891  0.39366574    -0.21300
C114        C  0.33359368  0.31831828  0.33350706     0.01700
H115        H  0.36921390  0.33565922  0.47436848     0.15500
H116        H  0.30452639  0.34713668  0.41548863     0.15500
O117        O  0.02857251  0.15186153  0.35630422    -0.75800
C118        C  0.05877278  0.28657319  0.40767437     0.85200
O119        O  0.04166279  0.15623679  0.07648690    -0.76900
O120        O  0.49121551  0.28409256  0.06793994    -0.78400
O121        O  0.41954384  0.24275227  0.37806504    -0.78200
O122        O  0.46761974  0.14697852  0.33702046    -0.76800
Zn123      Zn  0.03903093  0.19451821  0.42762147     1.55700
O124        O  0.44065242  0.29510144  0.44298383    -0.78200
Cd125      Cd  0.44775747  0.18907670  0.40976173     1.59700
Cd126      Cd  0.49077279  0.18094935  0.04392330     1.59600
O127        O  0.40962988  0.16057044  0.46758949    -0.78200
O128        O  0.49228506  0.20830557  0.46284368    -1.88700
Cd129      Cd  0.48967609  0.27010456  0.47628796     1.59900
O130        O  0.45311397  0.13312904  0.02910142    -0.78200
O131        O  0.03119140  0.30175660  0.43764306    -0.76800
C132        C  0.07180203  0.15512580  0.04718156     0.85700
C133        C  0.00132339  0.13559457  0.32509439     0.85400
O134        O  0.06476165  0.24681363  0.39964648    -0.75800
C135        C  0.41778644  0.28089996  0.40115645     0.86200
O136        O  0.07272429  0.16817487  0.99232365    -0.75900
C137        C  0.41890258  0.13893650  0.01377068     0.86300
C138        C  0.48146221  0.26548288  0.11485763     0.86600
O139        O  0.47542781  0.22614193  0.11339885    -0.78300
N140        N  0.04002231  0.07367479  0.28561468    -0.00800
C141        C  0.02711755  0.03375552  0.27947046     0.01800
C142        C  0.99338842  0.03548701  0.24661769    -0.21100
C143        C  0.98105106  0.07686435  0.24975847    -0.21300
C144        C  0.00939067  0.09954537  0.27882478     0.01700
H145        H  0.97512853  0.00938173  0.23824210     0.15500
H146        H  0.95243256  0.08750415  0.24311889     0.15500
N147        N  0.08315832  0.08586113  0.19989744    -0.00800
C148        C  0.07578504  0.08629535  0.26258122     0.01800
C149        C  0.08908008  0.12371756  0.28983009    -0.21100
C150        C  0.09540015  0.14988284  0.24346408    -0.21300
C151        C  0.09340206  0.12570701  0.18819435     0.01700
H152        H  0.09030902  0.13291582  0.33909133     0.15500
H153        H  0.10424931  0.18208076  0.25020327     0.15500
N154        N  0.09708783  0.05039773  0.16281672    -0.00800
C155        C  0.08530570  0.04683416  0.10173633     0.01800
C156        C  0.11427296  0.54149357  0.06136219    -0.21100
C157        C  0.14561963  0.53881472  0.09727056    -0.21300
C158        C  0.13483918  0.04275959  0.15833884     0.01700
H159        H  0.11242650  0.53481372  0.01132502     0.15500
H160        H  0.17324138  0.53092690  0.08062718     0.15500
N161        N  0.40205598  0.37290833  0.27341708    -0.00800
C162        C  0.43335080  0.39316409  0.29424595     0.01800
C163        C  0.43315015  0.43283568  0.27248692    -0.21100
C164        C  0.40014009  0.43838179  0.24082955    -0.21300
C165        C  0.38050016  0.40219656  0.24415458     0.01700
H166        H  0.45155604  0.45769859  0.28857134     0.15500
H167        H  0.38882119  0.46828019  0.22760216     0.15500
O168        O  0.45308687  0.38425925  0.06663176    -0.75800
C169        C  0.42093713  0.51129285  0.03991447     0.85200
O170        O  0.48812262  0.38585660  0.35617552    -0.76900
O171        O  0.00398722  0.02933032  0.38207589    -0.78400
O172        O  0.03501098  0.50272630  0.10796874    -0.75400
O173        O  0.00163456  0.41100172  0.12031883    -0.76800
Zn174      Zn  0.45192623  0.42442758  0.49289482     1.55700
O175        O  0.03847320  0.03869236  0.02428096    -0.78200
Cd176      Cd  0.02767543  0.44564526  0.05928503     1.59700
Cd177      Cd  0.02496983  0.42685913  0.40497165     1.59600
O178        O  0.08009978  0.42247609  0.53535220    -0.78200
O179        O  0.49879544  0.45088262  0.48063424    -1.88700
Cd180      Cd  0.49467124  0.01274665  0.97347387     1.59900
O181        O  0.07761161  0.40338959  0.43287898    -0.78200
O182        O  0.44688547  0.03296482  0.01991635    -0.76800
C183        C  0.45254627  0.38926452  0.35561964     0.85700
C184        C  0.47358870  0.38745012  0.11665383     0.85400
O185        O  0.41870334  0.47166603  0.02776922    -0.75800
C186        C  0.04941602  0.03125955  0.07933855     0.86200
O187        O  0.43464038  0.40152572  0.40465131    -0.75900
C188        C  0.09550694  0.40819374  0.48519666     0.86300
C189        C  0.02264825  0.01089457  0.33762447     0.86600
O190        O  0.03454946  0.97283679  0.34038625    -0.78300
N191        N  0.40475328  0.33078014  0.24741806    -0.00800
C192        C  0.41353472  0.31793206  0.18749427     0.01800
C193        C  0.39706042  0.27933508  0.17204066    -0.21100
C194        C  0.38075643  0.26691700  0.22431615    -0.21300
C195        C  0.38590159  0.29922896  0.26897960     0.01700
H196        H  0.40121889  0.25943411  0.12990580     0.15500
H197        H  0.36669524  0.23774067  0.22907539     0.15500
N198        N  0.44940740  0.32471620  0.16184161    -0.00800
C199        C  0.47486560  0.29324519  0.16964650     0.01800
C200        C  0.50585526  0.30911938  0.20057580    -0.21100
C201        C  0.50116289  0.35208262  0.20381125    -0.21300
C202        C  0.46848647  0.36073588  0.17030050     0.01700
H203        H  0.53245001  0.29263791  0.20514533     0.15500
H204        H  0.52400214  0.37330070  0.21299272     0.15500
N205        N  0.11903667  0.31236106  0.87497324    -0.00800
C206        C  0.13023540  0.31638495  0.81683339     0.01800
C207        C  0.09974039  0.32775325  0.78026344    -0.21100
C208        C  0.06931064  0.32813016  0.81808889    -0.21300
C209        C  0.08170799  0.31526150  0.87496965     0.01700
H210        H  0.09853416  0.32944834  0.73027887     0.15500
H211        H  0.04055925  0.33032468  0.80361789     0.15500
N212        N  0.35349184  0.12853582  0.55663372    -0.00800
C213        C  0.34442041  0.13763088  0.61778718     0.01800
C214        C  0.37497713  0.13874739  0.65769334    -0.21100
C215        C  0.40486144  0.13215639  0.62210929    -0.21300
C216        C  0.39192234  0.12791082  0.56073774     0.01700
H217        H  0.37558824  0.14767858  0.70722035     0.15500
H218        H  0.43338477  0.13545833  0.63905660     0.15500
O219        O  0.18734262  0.22924863  0.62486607    -0.75800
C220        C  0.17792730  0.13691206  0.69638221     0.85200
O221        O  0.19167466  0.28834503  0.82726845    -0.76900
O222        O  0.26422186  0.14483128  0.83581941    -0.78400
O223        O  0.30149330  0.19542617  0.63044995    -0.78200
O224        O  0.23381475  0.27446444  0.63332453    -0.76800
Zn225      Zn  0.18858054  0.21873341  0.71301164     1.55700
O226        O  0.29697025  0.14052200  0.68879703    -0.78200
Cd227      Cd  0.27146431  0.24196560  0.68518210     1.59700
Cd228      Cd  0.23629374  0.24589461  0.82370435     1.59600
O229        O  0.30450905  0.28358420  0.74297012    -0.78200
O230        O  0.23902084  0.21621952  0.74156232    -1.88700
Cd231      Cd  0.25281711  0.15595032  0.74362050     1.59900
O232        O  0.27815495  0.28440360  0.83572988    -0.78200
O233        O  0.21122535  0.12286225  0.69570917    -0.76800
C234        C  0.16190414  0.29029963  0.79402479     0.85700
C235        C  0.20099130  0.26446589  0.61504481     0.85400
O236        O  0.16925012  0.16577706  0.73618234    -0.75800
C237        C  0.31055073  0.15771652  0.64319160     0.86200
O238        O  0.15647165  0.26471028  0.74762987    -0.75900
C239        C  0.30298860  0.29594447  0.80096749     0.86300
C240        C  0.25880447  0.16515182  0.88830441     0.86600
O241        O  0.24500837  0.20276509  0.89260006    -0.78300
N242        N  0.16108706  0.33688399  0.95935800    -0.00800
C243        C  0.18897966  0.31896694  0.49385197     0.01800
C244        C  0.19300107  0.27683064  0.47106447    -0.21100
C245        C  0.16228365  0.26759489  0.93352826    -0.21300
C246        C  0.14358239  0.30534070  0.92644944     0.01700
H247        H  0.21189190  0.25335099  0.48944662     0.15500
H248        H  0.15620478  0.23745434  0.90961613     0.15500
N249        N  0.19252568  0.32847403  0.56104419    -0.00800
C250        C  0.17637197  0.36343537  0.58945440     0.01800
C251        C  0.14267328  0.35281873  0.61388096    -0.21100
C252        C  0.14428698  0.31012685  0.61730370    -0.21300
C253        C  0.17741522  0.29752709  0.59104701     0.01700
H254        H  0.12449736  0.37357333  0.64182721     0.15500
H255        H  0.12735999  0.29212716  0.64582385     0.15500
N256        N  0.15773056  0.38016092  0.94752610    -0.00800
C257        C  0.18936398  0.40225605  0.94129378     0.01800
C258        C  0.19004065  0.43674535  0.98379859    -0.21100
C259        C  0.15643093  0.43885436  0.01156401    -0.21300
C260        C  0.13653884  0.40532349  0.98642971     0.01700
H261        H  0.20959863  0.46208796  0.98580782     0.15500
H262        H  0.14582789  0.46443563  0.04112701     0.15500
N263        N  0.35811979  0.03634653  0.57537288    -0.00800
C264        C  0.34268962  0.04093124  0.63266685     0.01800
C265        C  0.37087051  0.54111414  0.67806725    -0.21100
C266        C  0.40374143  0.53364550  0.64807949    -0.21300
C267        C  0.39511868  0.03081982  0.58544422     0.01700
H268        H  0.36747559  0.54064196  0.72785153     0.15500
H269        H  0.43051263  0.52694327  0.66941030     0.15500
O270        O  0.15561778  0.49720891  0.73689181    -0.75800
C271        C  0.19910379  0.39360666  0.63000790     0.85200
O272        O  0.24134875  0.41009429  0.87822843    -0.76900
O273        O  0.31982863  0.40713522  0.69742992    -0.78400
O274        O  0.29088866  0.04192847  0.69826177    -0.78200
O275        O  0.19528057  0.04175019  0.70218141    -0.76800
Zn276      Zn  0.19367330  0.44893146  0.75378425     1.55700
O277        O  0.29475380  0.48971803  0.62414933    -0.78200
Cd278      Cd  0.24464466  0.02538449  0.74640442     1.59700
Cd279      Cd  0.27333055  0.44907765  0.82752368     1.59600
O280        O  0.24703397  0.05239304  0.83585513    -0.78200
O281        O  0.24542890  0.46407056  0.74972515    -1.88700
Cd282      Cd  0.27082707  0.44066381  0.67144912     1.59900
O283        O  0.27669221  0.00358332  0.89027588    -0.78200
O284        O  0.23223595  0.40298205  0.61623516    -0.76800
C285        C  0.20586048  0.40943724  0.88066532     0.85700
C286        C  0.16229175  0.52859892  0.70557550     0.85400
O287        O  0.18455971  0.40820613  0.68067828    -0.75800
C288        C  0.30613383  0.02474675  0.64970615     0.86200
O289        O  0.18460117  0.42338567  0.83732598    -0.75900
C290        C  0.26195301  0.04046872  0.88650649     0.86300
C291        C  0.33936199  0.40826887  0.74837919     0.86600
O292        O  0.32609280  0.42309600  0.80050517    -0.78300
N293        N  0.28530152  0.10532959  0.93894013    -0.00800
C294        C  0.26388773  0.14094362  0.94426495     0.01800
C295        C  0.23005230  0.13040007  0.96650341    -0.21100
C296        C  0.22867698  0.08709438  0.96239695    -0.21300
C297        C  0.26250675  0.07212202  0.94039867     0.01700
H298        H  0.20548180  0.15079786  0.96715072     0.15500
H299        H  0.20321893  0.06966551  0.96120872     0.15500
N300        N  0.33386326  0.09709506  0.01860645    -0.00800
C301        C  0.32439124  0.10147050  0.95692965     0.01800
C302        C  0.34241246  0.06938517  0.92166397    -0.21100
C303        C  0.35208863  0.03876971  0.96128489    -0.21300
C304        C  0.34450195  0.05559126  0.52019919     0.01700
H305        H  0.33930666  0.06341019  0.87163073     0.15500
H306        H  0.36297587  0.00749316  0.94832890     0.15500
N307        N  0.11659688  0.13446390  0.63683748    -0.00800
C308        C  0.10764520  0.14062428  0.57566288     0.01800
C309        C  0.13975479  0.13987231  0.54161180    -0.21100
C310        C  0.16908244  0.13423641  0.58238601    -0.21300
C311        C  0.15439174  0.13159577  0.63992130     0.01700
H312        H  0.14174948  0.14571247  0.49285459     0.15500
H313        H  0.19827016  0.13577884  0.57314281     0.15500
N314        N  0.36830485  0.30300170  0.82730807    -0.00800
C315        C  0.38651242  0.30853262  0.88256719     0.01800
C316        C  0.36379134  0.33027569  0.92487380    -0.21100
C317        C  0.33008840  0.33655147  0.89385297    -0.21300
C318        C  0.33354145  0.31835816  0.83366240     0.01700
H319        H  0.36915464  0.33562915  0.97454403     0.15500
H320        H  0.30444873  0.34704776  0.91570363     0.15500
O321        O  0.02855529  0.15193026  0.85628351    -0.75800
C322        C  0.05877881  0.28664537  0.90759729     0.85200
O323        O  0.04165791  0.15616662  0.57651983    -0.76900
O324        O  0.49114098  0.28401747  0.56795446    -0.78400
O325        O  0.41953209  0.24285773  0.87810572    -0.78200
O326        O  0.46760332  0.14706246  0.83701857    -0.76800
Zn327      Zn  0.03903018  0.19459443  0.92758152     1.55700
O328        O  0.44064778  0.29519185  0.94304750    -0.78200
Cd329      Cd  0.44775011  0.18917049  0.90975950     1.59700
Cd330      Cd  0.49076306  0.18087413  0.54395990     1.59600
O331        O  0.40963138  0.16065360  0.96759642    -0.78200
O332        O  0.49228904  0.20838885  0.96281593    -1.88700
Cd333      Cd  0.48969167  0.27018761  0.97626376     1.59900
O334        O  0.45309862  0.13305751  0.52913534    -0.78200
O335        O  0.03118190  0.30183178  0.93752375    -0.76800
C336        C  0.07180195  0.15506394  0.54722724     0.85700
C337        C  0.00130039  0.13566214  0.82509115     0.85400
O338        O  0.06478011  0.24688499  0.89961263    -0.75800
C339        C  0.41777213  0.28099798  0.90123004     0.86200
O340        O  0.07273256  0.16811353  0.49237021    -0.75900
C341        C  0.41888996  0.13886975  0.51378606     0.86300
C342        C  0.48142049  0.26540878  0.61489156     0.86600
O343        O  0.47542110  0.22606054  0.61345763    -0.78300
N344        N  0.03997613  0.07370106  0.78566093    -0.00800
C345        C  0.02706074  0.03378765  0.77951980     0.01800
C346        C  0.99332477  0.03553159  0.74668819    -0.21100
C347        C  0.98100396  0.07691374  0.74980949    -0.21300
C348        C  0.00935464  0.09958770  0.77885440     0.01700
H349        H  0.97505363  0.00943787  0.73832490     0.15500
H350        H  0.95238899  0.08756500  0.74316442     0.15500
N351        N  0.08313331  0.08585047  0.69996973    -0.00800
C352        C  0.07575219  0.08629206  0.76265020     0.01800
C353        C  0.08905922  0.12370701  0.78990190    -0.21100
C354        C  0.09538207  0.14987067  0.74353557    -0.21300
C355        C  0.09338287  0.12569332  0.68826586     0.01700
H356        H  0.09028506  0.13290538  0.83916364     0.15500
H357        H  0.10422778  0.18206966  0.75027497     0.15500
N358        N  0.09704949  0.05037820  0.66288803    -0.00800
C359        C  0.08526152  0.04681685  0.60180624     0.01800
C360        C  0.11424194  0.54145154  0.56142598    -0.21100
C361        C  0.14558937  0.53876081  0.59732429    -0.21300
C362        C  0.13480041  0.04272095  0.65839786     0.01700
H363        H  0.11239096  0.53476934  0.51138933     0.15500
H364        H  0.17320731  0.53086230  0.58067220     0.15500
N365        N  0.40210769  0.37293721  0.77345447    -0.00800
C366        C  0.43341613  0.39316965  0.79427957     0.01800
C367        C  0.43322550  0.43284571  0.77253656    -0.21100
C368        C  0.40021299  0.43841588  0.74089360    -0.21300
C369        C  0.38056411  0.40223436  0.74419380     0.01700
H370        H  0.45163722  0.45769711  0.78864015     0.15500
H371        H  0.38890343  0.46832319  0.72768672     0.15500
O372        O  0.45304657  0.38420417  0.56660289    -0.75800
C373        C  0.42092236  0.51126354  0.53983394     0.85200
O374        O  0.48817635  0.38587501  0.85624301    -0.76900
O375        O  0.00393191  0.02933864  0.88210863    -0.78400
O376        O  0.03501320  0.50264255  0.60798682    -0.75400
O377        O  0.00162146  0.41092831  0.62025560    -0.76800
Zn378      Zn  0.45195472  0.42446942  0.99293249     1.55700
O379        O  0.03843334  0.03867736  0.52434076    -0.78200
Cd380      Cd  0.02765174  0.44558678  0.55923618     1.59700
Cd381      Cd  0.02500346  0.42689779  0.90503435     1.59600
O382        O  0.08013644  0.42254358  0.03542332    -0.78200
O383        O  0.49882207  0.45091686  0.98068592    -1.88700
Cd384      Cd  0.49466872  0.01272453  0.47343824     1.59900
O385        O  0.07764634  0.40344042  0.93295549    -0.78200
O386        O  0.44685709  0.03293106  0.51982007    -0.76800
C387        C  0.45259926  0.38927681  0.85566738     0.85700
C388        C  0.47356294  0.38738434  0.61661056     0.85400
O389        O  0.41868943  0.47163407  0.52771887    -0.75800
C390        C  0.04937695  0.03122777  0.57939383     0.86200
O391        O  0.43468406  0.40154777  0.90468603    -0.75900
C392        C  0.09554350  0.40825372  0.98526961     0.86300
C393        C  0.02261456  0.01092244  0.83767042     0.86600
O394        O  0.03456509  0.97288376  0.84045207    -0.78300
N395        N  0.40475709  0.33079648  0.74749853    -0.00800
C396        C  0.41352453  0.31790180  0.68758379     0.01800
C397        C  0.39702683  0.27931142  0.67218792    -0.21100
C398        C  0.38070161  0.26695243  0.72447921    -0.21300
C399        C  0.38586097  0.29929177  0.76909353     0.01700
H400        H  0.40117631  0.25937735  0.63008236     0.15500
H401        H  0.36662247  0.23779334  0.72928315     0.15500
N402        N  0.44938625  0.32465983  0.66187241    -0.00800
C403        C  0.47483744  0.29318011  0.66967853     0.01800
C404        C  0.50584078  0.30905372  0.70056836    -0.21100
C405        C  0.50116545  0.35201872  0.70375326    -0.21300
C406        C  0.46847817  0.36067415  0.67027429     0.01700
H407        H  0.53243243  0.29256404  0.70513370     0.15500
H408        H  0.52401560  0.37322802  0.71288483     0.15500
N409        N  0.11901723  0.81228442  0.37501411    -0.00800
C410        C  0.13020313  0.81631165  0.31686896     0.01800
C411        C  0.09970062  0.82767428  0.28031353    -0.21100
C412        C  0.06927919  0.82805686  0.31815879    -0.21300
C413        C  0.08168923  0.81519361  0.37503766     0.01700
H414        H  0.09848567  0.82936820  0.23032893     0.15500
H415        H  0.04052432  0.83024930  0.30370118     0.15500
N416        N  0.35351810  0.62856248  0.05663393    -0.00800
C417        C  0.34445597  0.63765937  0.11778913     0.01800
C418        C  0.37501833  0.63877230  0.15768284    -0.21100
C419        C  0.40489712  0.63218016  0.12208367    -0.21300
C420        C  0.39194869  0.62794224  0.06071603     0.01700
H421        H  0.37563712  0.64770121  0.20721027     0.15500
H422        H  0.43342270  0.63548423  0.13901859     0.15500
O423        O  0.18731579  0.72923685  0.12488671    -0.75800
C424        C  0.17795979  0.63690707  0.19630226     0.85200
O425        O  0.19166581  0.78833109  0.32726207    -0.76900
O426        O  0.26418875  0.64482451  0.33581212    -0.78400
O427        O  0.30147058  0.69540751  0.13037502    -0.78200
O428        O  0.23378924  0.77445218  0.13329889    -0.76800
Zn429      Zn  0.18857926  0.71870132  0.21302662     1.55700
O430        O  0.29703381  0.64055869  0.18885642    -0.78200
Cd431      Cd  0.27145693  0.74195124  0.18512180     1.59700
Cd432      Cd  0.23631446  0.74591802  0.32367543     1.59600
O433        O  0.30453852  0.78354613  0.24287786    -0.78200
O434        O  0.23902912  0.71622100  0.24154586    -1.88700
Cd435      Cd  0.25283711  0.65595477  0.24359632     1.59900
O436        O  0.27817272  0.78444604  0.33563955    -0.78200
O437        O  0.21126566  0.62288149  0.19557730    -0.76800
C438        C  0.16188059  0.79024789  0.29404808     0.85700
C439        C  0.20096035  0.76445311  0.11504985     0.85400
O440        O  0.16928231  0.66572277  0.23617687    -0.75800
C441        C  0.31058023  0.65772812  0.14319818     0.86200
O442        O  0.15644835  0.76464241  0.24767286    -0.75900
C443        C  0.30302007  0.79593990  0.30086332     0.86300
C444        C  0.25879294  0.66515991  0.38829415     0.86600
O445        O  0.24503916  0.70279231  0.39258166    -0.78300
N446        N  0.16107971  0.83684651  0.45935394    -0.00800
C447        C  0.18896060  0.81897956  0.99388127     0.01800
C448        C  0.19296963  0.77684514  0.97107677    -0.21100
C449        C  0.16230435  0.76755433  0.43355286    -0.21300
C450        C  0.14357816  0.80528638  0.42647924     0.01700
H451        H  0.21184155  0.75334950  0.98946447     0.15500
H452        H  0.15623388  0.73740601  0.40965758     0.15500
N453        N  0.19248286  0.82847047  0.06107966    -0.00800
C454        C  0.17631920  0.86342269  0.08949766     0.01800
C455        C  0.14262601  0.85279059  0.11392825    -0.21100
C456        C  0.14424646  0.81009655  0.11732520    -0.21300
C457        C  0.17737643  0.79751108  0.09106201     0.01700
H458        H  0.12444767  0.87353434  0.14188645     0.15500
H459        H  0.12732589  0.79208580  0.14584090     0.15500
N460        N  0.15770363  0.88011632  0.44748477    -0.00800
C461        C  0.18932761  0.90222554  0.44124377     0.01800
C462        C  0.18999103  0.93672509  0.48372812    -0.21100
C463        C  0.15637923  0.93882902  0.51148302    -0.21300
C464        C  0.13650136  0.90528126  0.48636756     0.01700
H465        H  0.20953747  0.96207904  0.48571839     0.15500
H466        H  0.14576354  0.96441821  0.54101002     0.15500
N467        N  0.35813123  0.53637542  0.07544307    -0.00800
C468        C  0.34269316  0.54094527  0.13273427     0.01800
C469        C  0.37087127  0.04112479  0.17813560    -0.21100
C470        C  0.40374616  0.03366125  0.14815724    -0.21300
C471        C  0.39513012  0.53084916  0.08552342     0.01700
H472        H  0.36747227  0.04063827  0.22791734     0.15500
H473        H  0.43051079  0.02694902  0.16949415     0.15500
O474        O  0.15560553  0.99725932  0.23687081    -0.75800
C475        C  0.19904465  0.89361052  0.13003373     0.85200
O476        O  0.24130177  0.91004036  0.37815831    -0.76900
O477        O  0.31975227  0.90707215  0.19745291    -0.78400
O478        O  0.29089121  0.54192085  0.19832527    -0.78200
O479        O  0.19529953  0.54176742  0.20216226    -0.76800
Zn480      Zn  0.19362982  0.94895775  0.25377980     1.55700
O481        O  0.29476534  0.98970663  0.12420704    -0.78200
Cd482      Cd  0.24463519  0.52538712  0.24644224     1.59700
Cd483      Cd  0.27328416  0.94907126  0.32754092     1.59600
O484        O  0.24700125  0.55239711  0.33589690    -0.78200
O485        O  0.24539226  0.96407307  0.24974099    -1.88700
Cd486      Cd  0.27078414  0.94065626  0.17146934     1.59900
O487        O  0.27661751  0.50357206  0.39034276    -0.78200
O488        O  0.23217844  0.90298238  0.11626187    -0.76800
C489        C  0.20581355  0.90941261  0.38061435     0.85700
C490        C  0.16230476  0.02863211  0.20553462     0.85400
O491        O  0.18449683  0.90822360  0.18069270    -0.75800
C492        C  0.30613970  0.52474338  0.14976956     0.86200
O493        O  0.18455342  0.92340514  0.33730928    -0.75900
C494        C  0.26189660  0.54046717  0.38656250     0.86300
C495        C  0.33930200  0.90823220  0.24838474     0.86600
O496        O  0.32605085  0.92309687  0.30050694    -0.78300
N497        N  0.28525934  0.60533376  0.43896391    -0.00800
C498        C  0.26385790  0.64095754  0.44426611     0.01800
C499        C  0.23001923  0.63043486  0.46651593    -0.21100
C500        C  0.22863119  0.58712824  0.46243535    -0.21300
C501        C  0.26245720  0.57213348  0.44044508     0.01700
H502        H  0.20545722  0.65084651  0.46717862     0.15500
H503        H  0.20316830  0.56970935  0.46126994     0.15500
N504        N  0.33384013  0.59707965  0.51858973    -0.00800
C505        C  0.32435288  0.60147008  0.45692183     0.01800
C506        C  0.34236332  0.56939134  0.42162580    -0.21100
C507        C  0.35205687  0.53876798  0.46122414    -0.21300
C508        C  0.34451671  0.55560863  0.02025434     0.01700
H509        H  0.33924088  0.56342666  0.37159285     0.15500
H510        H  0.36294244  0.50749388  0.44824639     0.15500
N511        N  0.11661466  0.63449077  0.13676997    -0.00800
C512        C  0.10765482  0.64069284  0.07560891     0.01800
C513        C  0.13976213  0.63999488  0.04155791    -0.21100
C514        C  0.16909489  0.63434922  0.08231599    -0.21300
C515        C  0.15441258  0.63164428  0.13984207     0.01700
H516        H  0.14175142  0.64588691  0.99281803     0.15500
H517        H  0.19827968  0.63593691  0.07308103     0.15500
N518        N  0.36833774  0.80289022  0.32721450    -0.00800
C519        C  0.38654585  0.80844292  0.38247107     0.01800
C520        C  0.36384867  0.83026163  0.42473754    -0.21100
C521        C  0.33015775  0.83656993  0.39369739    -0.21300
C522        C  0.33359621  0.81832134  0.33353748     0.01700
H523        H  0.36921704  0.83565931  0.47439977     0.15500
H524        H  0.30452888  0.84713760  0.41552058     0.15500
O525        O  0.02856808  0.65186260  0.35630474    -0.75800
C526        C  0.05876869  0.78657433  0.40767076     0.85200
O527        O  0.04166438  0.65623772  0.07649218    -0.76900
O528        O  0.49120670  0.78409389  0.06792609    -0.78400
O529        O  0.41954768  0.74275551  0.37808731    -0.78200
O530        O  0.46762144  0.64698306  0.33702745    -0.76800
Zn531      Zn  0.03902935  0.69451912  0.42762028     1.55700
O532        O  0.44065734  0.79510247  0.44300948    -0.78200
Cd533      Cd  0.44776115  0.68907802  0.40977459     1.59700
Cd534      Cd  0.49077454  0.68094837  0.04391048     1.59600
O535        O  0.40963324  0.66057097  0.46759888    -0.78200
O536        O  0.49228830  0.70830469  0.46285798    -1.88700
Cd537      Cd  0.48968220  0.77010359  0.47630644     1.59900
O538        O  0.45311553  0.63312790  0.02908920    -0.78200
O539        O  0.03118664  0.80175734  0.43763799    -0.76800
C540        C  0.07180407  0.65512722  0.04718792     0.85700
C541        C  0.00131903  0.63559458  0.32509624     0.85400
O542        O  0.06475882  0.74681489  0.39964472    -0.75800
C543        C  0.41779032  0.78090219  0.40118277     0.86200
O544        O  0.07272610  0.66817323  0.99232814    -0.75900
C545        C  0.41890354  0.63893569  0.01376244     0.86300
C546        C  0.48145577  0.76548148  0.11484265     0.86600
O547        O  0.47542645  0.72613947  0.11338325    -0.78300
N548        N  0.04002076  0.57367662  0.28561891    -0.00800
C549        C  0.02711933  0.53375586  0.27947393     0.01800
C550        C  0.99339024  0.53548428  0.24662031    -0.21100
C551        C  0.98104921  0.57686040  0.24976315    -0.21300
C552        C  0.00938722  0.59954422  0.27882916     0.01700
H553        H  0.97513291  0.50937675  0.23824062     0.15500
H554        H  0.95243004  0.58749747  0.24312253     0.15500
N555        N  0.08315566  0.58586795  0.19990183    -0.00800
C556        C  0.07578207  0.58630114  0.26258529     0.01800
C557        C  0.08907767  0.62372244  0.28983694    -0.21100
C558        C  0.09540288  0.64988737  0.24347282    -0.21300
C559        C  0.09340422  0.62571265  0.18820214     0.01700
H560        H  0.09030559  0.63291991  0.33909846     0.15500
H561        H  0.10425405  0.68208440  0.25021412     0.15500
N562        N  0.09708044  0.55040385  0.16281778    -0.00800
C563        C  0.08529789  0.54684396  0.10173698     0.01800
C564        C  0.11428058  0.04148619  0.06136108    -0.21100
C565        C  0.14562758  0.03881233  0.09726940    -0.21300
C566        C  0.13483107  0.54276094  0.15833975     0.01700
H567        H  0.11243416  0.03480473  0.01132424     0.15500
H568        H  0.17324978  0.03092579  0.08062581     0.15500
N569        N  0.40205723  0.87290141  0.27342474    -0.00800
C570        C  0.43335296  0.89315669  0.29425030     0.01800
C571        C  0.43315360  0.93282644  0.27248489    -0.21100
C572        C  0.40014372  0.93837215  0.24082628    -0.21300
C573        C  0.38050255  0.90218828  0.24415789     0.01700
H574        H  0.45156112  0.95768886  0.28856418     0.15500
H575        H  0.38882639  0.96826988  0.22759166     0.15500
O576        O  0.45307592  0.88425344  0.06662660    -0.75800
C577        C  0.42094076  0.01129263  0.03991043     0.85200
O578        O  0.48812707  0.88585600  0.35617612    -0.76900
O579        O  0.00399225  0.52932972  0.38208145    -0.78400
O580        O  0.03501932  0.00271606  0.10797054    -0.75400
O581        O  0.00163512  0.91099174  0.12031752    -0.76800
Zn582      Zn  0.45193145  0.92442321  0.49289975     1.55700
O583        O  0.03846662  0.53870063  0.02427808    -0.78200
Cd584      Cd  0.02767813  0.94563619  0.05928583     1.59700
Cd585      Cd  0.02496866  0.92686148  0.40497246     1.59600
O586        O  0.08009994  0.92248876  0.53535135    -0.78200
O587        O  0.49879867  0.95088167  0.48063725    -1.88700
Cd588      Cd  0.49466874  0.51275337  0.97347509     1.59900
O589        O  0.07761055  0.90339360  0.43288104    -0.78200
O590        O  0.44687998  0.53296759  0.01991890    -0.76800
C591        C  0.45255048  0.88925947  0.35562328     0.85700
C592        C  0.47357638  0.88744305  0.11665036     0.85400
O593        O  0.41870312  0.97166626  0.02776413    -0.75800
C594        C  0.04940811  0.53126954  0.07933722     0.86200
O595        O  0.43464517  0.90151831  0.40465667    -0.75900
C596        C  0.09550662  0.90820227  0.48519732     0.86300
C597        C  0.02265150  0.51089409  0.33762782     0.86600
O598        O  0.03455150  0.47283564  0.34038716    -0.78300
N599        N  0.40475147  0.83077109  0.24743379    -0.00800
C600        C  0.41352913  0.81791499  0.18751109     0.01800
C601        C  0.39705954  0.77931272  0.17207562    -0.21100
C602        C  0.38075945  0.76690216  0.22435939    -0.21300
C603        C  0.38590335  0.79922237  0.26900996     0.01700
H604        H  0.40121655  0.75940589  0.12994599     0.15500
H605        H  0.36670009  0.73772633  0.22913181     0.15500
N606        N  0.44939482  0.82470763  0.16183736    -0.00800
C607        C  0.47485770  0.79324025  0.16963365     0.01800
C608        C  0.50584578  0.80911599  0.20056504    -0.21100
C609        C  0.50114776  0.85207846  0.20381148    -0.21300
C610        C  0.46847152  0.86072932  0.17029813     0.01700
H611        H  0.53244257  0.79263808  0.20512862     0.15500
H612        H  0.52398453  0.87329926  0.21299815     0.15500
N613        N  0.11903971  0.81235646  0.87497549    -0.00800
C614        C  0.13023756  0.81638453  0.81683661     0.01800
C615        C  0.09974211  0.82775551  0.78026975    -0.21100
C616        C  0.06931292  0.82812987  0.81809602    -0.21300
C617        C  0.08171114  0.81525728  0.87497415     0.01700
H618        H  0.09853511  0.82945469  0.73028604     0.15500
H619        H  0.04056121  0.83032623  0.80362636     0.15500
N620        N  0.35349144  0.62853833  0.55663877    -0.00800
C621        C  0.34441638  0.63763496  0.61778987     0.01800
C622        C  0.37497119  0.63876103  0.65770001    -0.21100
C623        C  0.40485772  0.63217268  0.62212104    -0.21300
C624        C  0.39192178  0.62791789  0.56074845     0.01700
H625        H  0.37557892  0.64769659  0.70722575     0.15500
H626        H  0.43337989  0.63548115  0.63907137     0.15500
O627        O  0.18733023  0.72924887  0.62487067    -0.75800
C628        C  0.17792644  0.63690619  0.69638088     0.85200
O629        O  0.19167759  0.78834705  0.82726170    -0.76900
O630        O  0.26421813  0.64482710  0.83581897    -0.78400
O631        O  0.30148173  0.69542232  0.63044065    -0.78200
O632        O  0.23380412  0.77446248  0.63332553    -0.76800
Zn633      Zn  0.18857425  0.71872722  0.71301453     1.55700
O634        O  0.29696592  0.64052107  0.68879626    -0.78200
Cd635      Cd  0.27145583  0.74196171  0.68517535     1.59700
Cd636      Cd  0.23629262  0.74589117  0.82369951     1.59600
O637        O  0.30450431  0.78358053  0.74295566    -0.78200
O638        O  0.23901568  0.71621472  0.74155919    -1.88700
Cd639      Cd  0.25281334  0.65594599  0.74361984     1.59900
O640        O  0.27815600  0.78439657  0.83571959    -0.78200
O641        O  0.21122413  0.62285577  0.69570780    -0.76800
C642        C  0.16190407  0.79029763  0.79402509     0.85700
C643        C  0.20097954  0.76446599  0.61504992     0.85400
O644        O  0.16924907  0.66576836  0.73618531    -0.75800
C645        C  0.31054340  0.65771491  0.64318769     0.86200
O646        O  0.15646662  0.76470203  0.74763931    -0.75900
C647        C  0.30298678  0.79593965  0.80095362     0.86300
C648        C  0.25880067  0.66514866  0.88830320     0.86600
O649        O  0.24500562  0.70276246  0.89259705    -0.78300
N650        N  0.16109215  0.83688133  0.95935564    -0.00800
C651        C  0.18897097  0.81896805  0.49385922     0.01800
C652        C  0.19299095  0.77683134  0.47107285    -0.21100
C653        C  0.16229083  0.76759230  0.93352627    -0.21300
C654        C  0.14358727  0.80533711  0.92644965     0.01700
H655        H  0.21187993  0.75335071  0.48945669     0.15500
H656        H  0.15621251  0.73745139  0.90961480     0.15500
N657        N  0.19251522  0.82847536  0.56105166    -0.00800
C658        C  0.17636266  0.86343759  0.58946130     0.01800
C659        C  0.14266427  0.85282212  0.61389027    -0.21100
C660        C  0.14427706  0.81013019  0.61731397    -0.21300
C661        C  0.17740414  0.79752894  0.59105488     0.01700
H662        H  0.12448925  0.87357762  0.64183698     0.15500
H663        H  0.12735034  0.79213099  0.64583523     0.15500
N664        N  0.15773363  0.88015816  0.94752344    -0.00800
C665        C  0.18936617  0.90225497  0.94129196     0.01800
C666        C  0.19004148  0.93674396  0.98379720    -0.21100
C667        C  0.15643125  0.93885207  0.01156269    -0.21300
C668        C  0.13654087  0.90531955  0.98642648     0.01700
H669        H  0.20959858  0.96208759  0.98580708     0.15500
H670        H  0.14582847  0.96442940  0.04112361     0.15500
N671        N  0.35812393  0.53634949  0.57537372    -0.00800
C672        C  0.34269510  0.54093358  0.63266864     0.01800
C673        C  0.37086384  0.04110752  0.67806711    -0.21100
C674        C  0.40373529  0.03363475  0.64808187    -0.21300
C675        C  0.39512323  0.53082789  0.58544285     0.01700
H676        H  0.36746718  0.04063638  0.72785112     0.15500
H677        H  0.43050499  0.02693019  0.66941479     0.15500
O678        O  0.15561099  0.99721152  0.73689518    -0.75800
C679        C  0.19909596  0.89360875  0.63001285     0.85200
O680        O  0.24134909  0.91009629  0.87822440    -0.76900
O681        O  0.31982566  0.90713788  0.69742743    -0.78400
O682        O  0.29089635  0.54192533  0.69826736    -0.78200
O683        O  0.19528965  0.54174482  0.70217753    -0.76800
Zn684      Zn  0.19366863  0.94893548  0.75378654     1.55700
O685        O  0.29474579  0.98971919  0.62414627    -0.78200
Cd686      Cd  0.24465141  0.52537965  0.74640514     1.59700
Cd687      Cd  0.27332873  0.94908157  0.82752014     1.59600
O688        O  0.24703607  0.55238912  0.83585450    -0.78200
O689        O  0.24542417  0.96407485  0.74972413    -1.88700
Cd690      Cd  0.27082151  0.94066513  0.67144885     1.59900
O691        O  0.27669239  0.50358023  0.89027908    -0.78200
O692        O  0.23222830  0.90298277  0.61623866    -0.76800
C693        C  0.20586098  0.90943863  0.88066361     0.85700
C694        C  0.16228327  0.02860224  0.70557913     0.85400
O695        O  0.18455289  0.90820957  0.68068320    -0.75800
C696        C  0.30614123  0.52474550  0.64971046     0.86200
O697        O  0.18460017  0.92338837  0.83732730    -0.75900
C698        C  0.26195291  0.54046539  0.88650770     0.86300
C699        C  0.33936013  0.90827307  0.74837579     0.86600
O700        O  0.32609129  0.92310121  0.80050138    -0.78300
N701        N  0.28529704  0.60532783  0.93894454    -0.00800
C702        C  0.26388184  0.64094107  0.94426482     0.01800
C703        C  0.23004528  0.63039604  0.96649741    -0.21100
C704        C  0.22867142  0.58709028  0.96239151    -0.21300
C705        C  0.26250310  0.57211908  0.94039969     0.01700
H706        H  0.20547412  0.65079281  0.96714040     0.15500
H707        H  0.20321378  0.56966038  0.96119880     0.15500
N708        N  0.33386055  0.59709708  0.01861008    -0.00800
C709        C  0.32438729  0.60147078  0.95693300     0.01800
C710        C  0.34240843  0.56938486  0.92166840    -0.21100
C711        C  0.35208346  0.53876968  0.96129028    -0.21300
C712        C  0.34450455  0.55559362  0.52020067     0.01700
H713        H  0.33930242  0.56340898  0.87163534     0.15500
H714        H  0.36296956  0.50749247  0.94833556     0.15500
N715        N  0.11659792  0.63446174  0.63683139    -0.00800
C716        C  0.10764710  0.64062350  0.57565703     0.01800
C717        C  0.13975743  0.63987386  0.54160792    -0.21100
C718        C  0.16908447  0.63423819  0.58238386    -0.21300
C719        C  0.15439259  0.63159525  0.63991747     0.01700
H720        H  0.14175289  0.64571533  0.49285140     0.15500
H721        H  0.19827245  0.63578146  0.57314363     0.15500
N722        N  0.36830288  0.80300073  0.82728865    -0.00800
C723        C  0.38651074  0.80853195  0.88254777     0.01800
C724        C  0.36378954  0.83027411  0.92485502    -0.21100
C725        C  0.33008644  0.83654930  0.89383503    -0.21300
C726        C  0.33353925  0.81835597  0.83364444     0.01700
H727        H  0.36915291  0.83562701  0.97452538     0.15500
H728        H  0.30444669  0.84704431  0.91568662     0.15500
O729        O  0.02855895  0.65192354  0.85628419    -0.75800
C730        C  0.05878213  0.78663984  0.90759966     0.85200
O731        O  0.04165994  0.65616468  0.57651458    -0.76900
O732        O  0.49115090  0.78401418  0.56797333    -0.78400
O733        O  0.41952990  0.74285631  0.87809165    -0.78200
O734        O  0.46760373  0.64706291  0.83701276    -0.76800
Zn735      Zn  0.03903274  0.69458891  0.92758145     1.55700
O736        O  0.44064668  0.79519280  0.94302723    -0.78200
Cd737      Cd  0.44774942  0.68917125  0.90975115     1.59700
Cd738      Cd  0.49076669  0.68087177  0.54397339     1.59600
O739        O  0.40963099  0.66065449  0.96759053    -0.78200
O740        O  0.49228977  0.70839016  0.96280495    -1.88700
Cd741      Cd  0.48968923  0.77018924  0.97625033     1.59900
O742        O  0.45309931  0.63305771  0.52915010    -0.78200
O743        O  0.03118565  0.80182566  0.93752768    -0.76800
C744        C  0.07180375  0.65506291  0.54722148     0.85700
C745        C  0.00130483  0.63565605  0.82508884     0.85400
O746        O  0.06478277  0.74687948  0.89961169    -0.75800
C747        C  0.41777055  0.78099757  0.90121162     0.86200
O748        O  0.07273386  0.66811368  0.49236513    -0.75900
C749        C  0.41889127  0.63887118  0.51379716     0.86300
C750        C  0.48143080  0.76540601  0.61491119     0.86600
O751        O  0.47543029  0.72605792  0.61347728    -0.78300
N752        N  0.03998187  0.57369693  0.78565708    -0.00800
C753        C  0.02706647  0.53378359  0.77951459     0.01800
C754        C  0.99333171  0.53552741  0.74667948    -0.21100
C755        C  0.98101041  0.57690950  0.74980243    -0.21300
C756        C  0.00936022  0.59958314  0.77885044     0.01700
H757        H  0.97506122  0.50943328  0.73831413     0.15500
H758        H  0.95239544  0.58756073  0.74315691     0.15500
N759        N  0.08313894  0.58584622  0.69996599    -0.00800
C760        C  0.07575771  0.58628891  0.76264644     0.01800
C761        C  0.08906184  0.62370618  0.78989508    -0.21100
C762        C  0.09538060  0.64986960  0.74352663    -0.21300
C763        C  0.09338375  0.62569018  0.68825873     0.01700
H764        H  0.09028864  0.63290571  0.83915638     0.15500
H765        H  0.10422463  0.68206945  0.75026351     0.15500
N766        N  0.09705803  0.55037438  0.66288636    -0.00800
C767        C  0.08527042  0.54681153  0.60180485     0.01800
C768        C  0.11423307  0.04145332  0.56142779    -0.21100
C769        C  0.14558032  0.03876040  0.59732629    -0.21300
C770        C  0.13480937  0.54272044  0.65839604     0.01700
H771        H  0.11238197  0.03477134  0.51139110     0.15500
H772        H  0.17319812  0.03086128  0.58067464     0.15500
N773        N  0.40210734  0.87294130  0.77344702    -0.00800
C774        C  0.43341500  0.89317359  0.79427570     0.01800
C775        C  0.43322318  0.93285176  0.77254012    -0.21100
C776        C  0.40021060  0.93842263  0.74089789    -0.21300
C777        C  0.38056277  0.90223963  0.74419003     0.01700
H778        H  0.45163325  0.95770351  0.78864967     0.15500
H779        H  0.38889961  0.96833088  0.72769886     0.15500
O780        O  0.45305749  0.88420193  0.56660988    -0.75800
C781        C  0.42091937  0.01125703  0.53983522     0.85200
O782        O  0.48817321  0.88587055  0.85624170    -0.76900
O783        O  0.00393200  0.52933776  0.88210050    -0.78400
O784        O  0.03500207  0.00265094  0.60798595    -0.75400
O785        O  0.00162412  0.91093218  0.62025411    -0.76800
Zn786      Zn  0.45195032  0.92446595  0.99292874     1.55700
O787        O  0.03844207  0.53866991  0.52434156    -0.78200
Cd788      Cd  0.02764976  0.94559399  0.55923464     1.59700
Cd789      Cd  0.02500459  0.92689712  0.90503329     1.59600
O790        O  0.08013819  0.92253301  0.03542198    -0.78200
O791        O  0.49881954  0.95091036  0.98068438    -1.88700
Cd792      Cd  0.49467061  0.51272562  0.47343723     1.59900
O793        O  0.07764858  0.90343961  0.93295101    -0.78200
O794        O  0.44686223  0.53293531  0.51982144    -0.76800
C795        C  0.45259638  0.88927672  0.85566347     0.85700
C796        C  0.47357482  0.88738410  0.61661632     0.85400
O797        O  0.41869080  0.97162676  0.52772406    -0.75800
C798        C  0.04938691  0.53121977  0.57939354     0.86200
O799        O  0.43468064  0.90154846  0.90468111    -0.75900
C800        C  0.09554547  0.90824809  0.98526625     0.86300
C801        C  0.02261652  0.51092001  0.83766557     0.86600
O802        O  0.03456634  0.47288140  0.84045066    -0.78300
N803        N  0.40475829  0.83080152  0.74748790    -0.00800
C804        C  0.41353146  0.81790970  0.68757490     0.01800
C805        C  0.39703127  0.77932222  0.67216839    -0.21100
C806        C  0.38070026  0.76696082  0.72445301    -0.21300
C807        C  0.38585868  0.79929636  0.76907361     0.01700
H808        H  0.40118415  0.75939001  0.63006206     0.15500
H809        H  0.36661996  0.73780146  0.72924948     0.15500
N810        N  0.44939924  0.82466113  0.66188196    -0.00800
C811        C  0.47484723  0.79317925  0.66969669     0.01800
C812        C  0.50585120  0.80905295  0.70058510    -0.21100
C813        C  0.50117982  0.85201850  0.70375816    -0.21300
C814        C  0.46849240  0.86067442  0.67028046     0.01700
H815        H  0.53244144  0.79256107  0.70515654     0.15500
H816        H  0.52403161  0.87322621  0.71288446     0.15500
N817        N  0.61902138  0.31228102  0.37501659    -0.00800
C818        C  0.63020750  0.31631523  0.31687378     0.01800
C819        C  0.59970586  0.32768563  0.28032225    -0.21100
C820        C  0.56928455  0.32806752  0.31816801    -0.21300
C821        C  0.58169376  0.31519556  0.37504266     0.01700
H822        H  0.59849106  0.32938661  0.23033884     0.15500
H823        H  0.54052974  0.33026688  0.30371190     0.15500
N824        N  0.85351549  0.12856203  0.05663488    -0.00800
C825        C  0.84445043  0.13765759  0.11778883     0.01800
C826        C  0.87501135  0.13877657  0.15768551    -0.21100
C827        C  0.90489193  0.13218904  0.12208978    -0.21300
C828        C  0.89194592  0.12794710  0.06072115     0.01700
H829        H  0.87562753  0.14770699  0.20721256     0.15500
H830        H  0.93341650  0.13549814  0.13902739     0.15500
O831        O  0.68730891  0.22923624  0.12488906    -0.75800
C832        C  0.67795565  0.13690604  0.19630111     0.85200
O833        O  0.69166975  0.28833440  0.32725763    -0.76900
O834        O  0.76418303  0.14482246  0.33581027    -0.78400
O835        O  0.80146131  0.19540167  0.13036612    -0.78200
O836        O  0.73378390  0.27444943  0.13329750    -0.76800
Zn837      Zn  0.68857487  0.21869995  0.21302839     1.55700
O838        O  0.79702814  0.14055590  0.18885469    -0.78200
Cd839      Cd  0.77145180  0.24194657  0.18511537     1.59700
Cd840      Cd  0.73631585  0.24591825  0.32367159     1.59600
O841        O  0.80453723  0.28354107  0.24286388    -0.78200
O842        O  0.73902550  0.21621866  0.24154367    -1.88700
Cd843      Cd  0.75283205  0.15595239  0.24359464     1.59900
O844        O  0.77817499  0.28444551  0.33562878    -0.78200
O845        O  0.71126118  0.12287994  0.19557568    -0.76800
C846        C  0.66188270  0.29025046  0.29404833     0.85700
C847        C  0.70095409  0.26445208  0.11505202     0.85400
O848        O  0.66927826  0.16572097  0.23617714    -0.75800
C849        C  0.81057293  0.15772378  0.14319362     0.86200
O850        O  0.65644640  0.26464219  0.24767775    -0.75900
C851        C  0.80302092  0.29593759  0.30084839     0.86300
C852        C  0.75879118  0.16515958  0.38829228     0.86600
O853        O  0.74504118  0.20279369  0.39257990    -0.78300
N854        N  0.66108316  0.33684565  0.45935510    -0.00800
C855        C  0.68895515  0.31897856  0.99388530     0.01800
C856        C  0.69296136  0.27684358  0.97108185    -0.21100
C857        C  0.66231355  0.26755407  0.43355119    -0.21300
C858        C  0.64358325  0.30528414  0.42648094     0.01700
H859        H  0.71183152  0.25334640  0.98947004     0.15500
H860        H  0.65624537  0.23740541  0.40965492     0.15500
N861        N  0.69247754  0.32847004  0.06108369    -0.00800
C862        C  0.67631500  0.36342289  0.08950174     0.01800
C863        C  0.64262187  0.35279193  0.11393377    -0.21100
C864        C  0.64424160  0.31009801  0.11733213    -0.21300
C865        C  0.67737073  0.29751141  0.09106715     0.01700
H866        H  0.62444424  0.37353655  0.14189203     0.15500
H867        H  0.62732106  0.29208810  0.14584925     0.15500
N868        N  0.65770324  0.38011533  0.44748671    -0.00800
C869        C  0.68932507  0.40222815  0.44124526     0.01800
C870        C  0.68998482  0.43672926  0.48372684    -0.21100
C871        C  0.65637322  0.43882927  0.51148265    -0.21300
C872        C  0.63649880  0.40527799  0.48636903     0.01700
H873        H  0.70952837  0.46208606  0.48571490     0.15500
H874        H  0.64575508  0.46441768  0.54100672     0.15500
N875        N  0.85813597  0.03637515  0.07544372    -0.00800
C876        C  0.84269819  0.04094561  0.13273499     0.01800
C877        C  0.87086799  0.54112363  0.17813874    -0.21100
C878        C  0.90374268  0.53365678  0.14816053    -0.21300
C879        C  0.89513501  0.03085171  0.08552405     0.01700
H880        H  0.86746858  0.54063726  0.22792046     0.15500
H881        H  0.93050688  0.52694199  0.16949801     0.15500
O882        O  0.65560138  0.49725763  0.23687000    -0.75800
C883        C  0.69904141  0.39361036  0.13003715     0.85200
O884        O  0.74129963  0.41004115  0.37815987    -0.76900
O885        O  0.81974880  0.40707326  0.19745246    -0.78400
O886        O  0.79089711  0.04191992  0.19832727    -0.78200
O887        O  0.69530594  0.04176494  0.20215575    -0.76800
Zn888      Zn  0.69362714  0.44895808  0.25378177     1.55700
O889        O  0.79476175  0.48970896  0.12420961    -0.78200
Cd890      Cd  0.74464003  0.02538611  0.24644060     1.59700
Cd891      Cd  0.77328177  0.44907205  0.32754190     1.59600
O892        O  0.74700253  0.05239646  0.33589480    -0.78200
O893        O  0.74538907  0.46407504  0.24974290    -1.88700
Cd894      Cd  0.77078043  0.44065795  0.17147059     1.59900
O895        O  0.77662066  0.00357301  0.39034126    -0.78200
O896        O  0.73217447  0.40298368  0.11626311    -0.76800
C897        C  0.70581140  0.40941403  0.38061607     0.85700
C898        C  0.66229973  0.52863293  0.20553837     0.85400
O899        O  0.68449462  0.40822256  0.18069729    -0.75800
C900        C  0.80614536  0.02474298  0.14977112     0.86200
O901        O  0.68455135  0.42340654  0.33731107    -0.75900
C902        C  0.76189811  0.04046731  0.38656065     0.86300
C903        C  0.83929908  0.40823383  0.24838375     0.86600
O904        O  0.82604816  0.42309826  0.30050620    -0.78300
N905        N  0.78525909  0.10533449  0.43896232    -0.00800
C906        C  0.76385704  0.14095787  0.44426479     0.01800
C907        C  0.73001860  0.13043424  0.46651462    -0.21100
C908        C  0.72863121  0.08712755  0.46243310    -0.21300
C909        C  0.76245750  0.07213374  0.44044292     0.01700
H910        H  0.70545621  0.15084538  0.46717780     0.15500
H911        H  0.70316869  0.06970805  0.46126747     0.15500
N912        N  0.83383841  0.09708003  0.51859029    -0.00800
C913        C  0.82435238  0.10147124  0.45692212     0.01800
C914        C  0.84236361  0.06939306  0.42162625    -0.21100
C915        C  0.85205496  0.03876859  0.46122391    -0.21300
C916        C  0.84452082  0.05560694  0.02025422     0.01700
H917        H  0.83924243  0.06342929  0.37159297     0.15500
H918        H  0.86293993  0.00749430  0.44824572     0.15500
N919        N  0.61661136  0.13448823  0.13676807    -0.00800
C920        C  0.60765134  0.14069054  0.07560741     0.01800
C921        C  0.63975862  0.13999533  0.04155644    -0.21100
C922        C  0.66909151  0.13435166  0.08231484    -0.21300
C923        C  0.65440917  0.13164480  0.13984039     0.01700
H924        H  0.64174783  0.14588894  0.99281716     0.15500
H925        H  0.69827621  0.13594193  0.07308079     0.15500
N926        N  0.86833861  0.30288655  0.32719369    -0.00800
C927        C  0.88654726  0.30844172  0.38244951     0.01800
C928        C  0.86385178  0.33026508  0.42471384    -0.21100
C929        C  0.83016100  0.33657364  0.39367389    -0.21300
C930        C  0.83359801  0.31832046  0.33351643     0.01700
H931        H  0.86922096  0.33566593  0.47437534     0.15500
H932        H  0.80453287  0.34714460  0.41549654     0.15500
O933        O  0.52856963  0.15186273  0.35629802    -0.75800
C934        C  0.55877083  0.28657554  0.40767021     0.85200
O935        O  0.54166175  0.15623677  0.07649488    -0.76900
O936        O  0.99121330  0.28409617  0.06793348    -0.78400
O937        O  0.91954703  0.24275254  0.37807355    -0.78200
O938        O  0.96762267  0.14697979  0.33702433    -0.76800
Zn939      Zn  0.53902968  0.19451953  0.42761504     1.55700
O940        O  0.94065656  0.29510123  0.44299238    -0.78200
Cd941      Cd  0.94775985  0.18907605  0.40976769     1.59700
Cd942      Cd  0.99077413  0.18095139  0.04391664     1.59600
O943        O  0.90963148  0.16056948  0.46759363    -0.78200
O944        O  0.99228673  0.20830415  0.46285118    -1.88700
Cd945      Cd  0.98967948  0.27010311  0.47629677     1.59900
O946        O  0.95311337  0.13313265  0.02909927    -0.78200
O947        O  0.53118765  0.30175836  0.43763477    -0.76800
C948        C  0.57180078  0.15512619  0.04718892     0.85700
C949        C  0.50132055  0.13559393  0.32509023     0.85400
O950        O  0.56476075  0.24681604  0.39964320    -0.75800
C951        C  0.91779027  0.28090018  0.40116522     0.86200
O952        O  0.57272249  0.16817398  0.99233036    -0.75900
C953        C  0.91890182  0.13893962  0.01376896     0.86300
C954        C  0.98146239  0.26548505  0.11485132     0.86600
O955        O  0.97543082  0.22614353  0.11339265    -0.78300
N956        N  0.54002037  0.07367348  0.28561536    -0.00800
C957        C  0.52711718  0.03375355  0.27947178     0.01800
C958        C  0.49338774  0.03548335  0.24661945    -0.21100
C959        C  0.48104905  0.07686023  0.24975924    -0.21300
C960        C  0.50938816  0.09954292  0.27882385     0.01700
H961        H  0.47512873  0.00937724  0.23824310     0.15500
H962        H  0.45243032  0.08749895  0.24311896     0.15500
N963        N  0.58315653  0.08586218  0.19990026    -0.00800
C964        C  0.57578304  0.08629495  0.26258362     0.01800
C965        C  0.58907849  0.12371620  0.28983513    -0.21100
C966        C  0.59539996  0.14988246  0.24347101    -0.21300
C967        C  0.59340173  0.12570799  0.18820009     0.01700
H968        H  0.59030674  0.13291324  0.33909683     0.15500
H969        H  0.60424923  0.18208019  0.25021220     0.15500
N970        N  0.59708482  0.05039907  0.16281778    -0.00800
C971        C  0.58530197  0.04683677  0.10173759     0.01800
C972        C  0.61427737  0.54148777  0.06136232    -0.21100
C973        C  0.64562377  0.53881104  0.09727178    -0.21300
C974        C  0.63483607  0.04276095  0.15833877     0.01700
H975        H  0.61243117  0.53480637  0.01132550     0.15500
H976        H  0.67324596  0.53092274  0.08062939     0.15500
N977        N  0.90205652  0.37290570  0.27341951    -0.00800
C978        C  0.93335062  0.39316310  0.29424804     0.01800
C979        C  0.93314839  0.43283451  0.27248810    -0.21100
C980        C  0.90013841  0.43837867  0.24082957    -0.21300
C981        C  0.88049986  0.40219252  0.24415581     0.01700
H982        H  0.95155331  0.45769856  0.28857202     0.15500
H983        H  0.88881856  0.46827626  0.22760048     0.15500
O984        O  0.95308362  0.38425730  0.06662966    -0.75800
C985        C  0.92093765  0.51129221  0.03991129     0.85200
O986        O  0.98812418  0.38585773  0.35617405    -0.76900
O987        O  0.50398908  0.02932793  0.38207818    -0.78400
O988        O  0.53501276  0.50272675  0.10796918    -0.75400
O989        O  0.50163959  0.41100134  0.12031897    -0.76800
Zn990      Zn  0.95192924  0.42442549  0.49289859     1.55700
O991        O  0.53847066  0.03869134  0.02428097    -0.78200
Cd992      Cd  0.52767887  0.44564592  0.05928507     1.59700
Cd993      Cd  0.52496700  0.42686133  0.40496885     1.59600
O994        O  0.58009603  0.42247689  0.53535180    -0.78200
O995        O  0.99879821  0.45088059  0.48063723    -1.88700
Cd996      Cd  0.99467194  0.01274802  0.97347772     1.59900
O997        O  0.57760956  0.40339462  0.43287715    -0.78200
O998        O  0.94688633  0.03296580  0.01992371    -0.76800
C999        C  0.95254776  0.38926417  0.35562080     0.85700
C1000       C  0.97358429  0.38744953  0.11665292     0.85400
O1001       O  0.91870327  0.47166528  0.02776810    -0.75800
C1002       C  0.54941309  0.03125949  0.07933913     0.86200
O1003       O  0.93464278  0.40152415  0.40465411    -0.75900
C1004       C  0.59550400  0.40819650  0.48519598     0.86300
C1005       C  0.52264980  0.01089256  0.33762614     0.86600
O1006       O  0.53455214  0.97283515  0.34038775    -0.78300
N1007       N  0.90475429  0.33077682  0.24742324    -0.00800
C1008       C  0.91353451  0.31792652  0.18749974     0.01800
C1009       C  0.89706260  0.27932735  0.17205182    -0.21100
C1010       C  0.88076019  0.26691113  0.22432989    -0.21300
C1011       C  0.88590455  0.29922576  0.26898930     0.01700
H1012       H  0.90122090  0.25942471  0.12991846     0.15500
H1013       H  0.86670003  0.23773468  0.22909328     0.15500
N1014       N  0.94940456  0.32471474  0.16184014    -0.00800
C1015       C  0.97486519  0.29324573  0.16964124     0.01800
C1016       C  0.00585404  0.30912125  0.20057095    -0.21100
C1017       C  0.00115848  0.35208410  0.20381164    -0.21300
C1018       C  0.96848182  0.36073567  0.17030019     0.01700
H1019       H  0.03244998  0.29264184  0.20513743     0.15500
H1020       H  0.02399629  0.37330385  0.21299527     0.15500
N1021       N  0.61903631  0.31236016  0.87497558    -0.00800
C1022       C  0.63023515  0.31638318  0.81683556     0.01800
C1023       C  0.59973969  0.32774852  0.78026436    -0.21100
C1024       C  0.56930951  0.32812280  0.81808820    -0.21300
C1025       C  0.58170733  0.31525677  0.87497025     0.01700
H1026       H  0.59853356  0.32944248  0.73027974     0.15500
H1027       H  0.54055808  0.33031370  0.80361505     0.15500
N1028       N  0.85349236  0.12853709  0.55663813    -0.00800
C1029       C  0.84442001  0.13763263  0.61779089     0.01800
C1030       C  0.87497633  0.13875146  0.65769793    -0.21100
C1031       C  0.90486117  0.13216079  0.62211490    -0.21300
C1032       C  0.89192277  0.12791269  0.56074316     0.01700
H1033       H  0.87558667  0.14768378  0.70722457     0.15500
H1034       H  0.93338432  0.13546417  0.63906268     0.15500
O1035       O  0.68733604  0.22924913  0.62486951    -0.75800
C1036       C  0.67792569  0.13690868  0.69637956     0.85200
O1037       O  0.69167474  0.28834307  0.82726999    -0.76900
O1038       O  0.76421853  0.14482542  0.83581988    -0.78400
O1039       O  0.80149033  0.19542535  0.63045123    -0.78200
O1040       O  0.73380958  0.27446313  0.63332653    -0.76800
Zn1041     Zn  0.68857740  0.21872934  0.71301410     1.55700
O1042       O  0.79696879  0.14052062  0.68879817    -0.78200
Cd1043     Cd  0.77146015  0.24196403  0.68518253     1.59700
Cd1044     Cd  0.73629161  0.24588907  0.82370564     1.59600
O1045       O  0.80450434  0.28358464  0.74296839    -0.78200
O1046       O  0.73901812  0.21621554  0.74156287    -1.88700
Cd1047     Cd  0.75281480  0.15594630  0.74362055     1.59900
O1048       O  0.77815447  0.28439507  0.83573061    -0.78200
O1049       O  0.71122376  0.12285889  0.69570601    -0.76800
C1050       C  0.66190341  0.29029655  0.79402808     0.85700
C1051       C  0.70098557  0.26446600  0.61504812     0.85400
O1052       O  0.66924826  0.16577172  0.73618262    -0.75800
C1053       C  0.81054907  0.15771610  0.64319340     0.86200
O1054       O  0.65646952  0.26470503  0.74763626    -0.75900
C1055       C  0.80298548  0.29594105  0.80096731     0.86300
C1056       C  0.75880059  0.16514553  0.88830511     0.86600
O1057       O  0.74500458  0.20275883  0.89260087    -0.78300
N1058       N  0.66108871  0.33688266  0.95935791    -0.00800
C1059       C  0.68897713  0.31896981  0.49385752     0.01800
C1060       C  0.69300042  0.27683394  0.47106928    -0.21100
C1061       C  0.66228237  0.26759317  0.93353076    -0.21300
C1062       C  0.64358227  0.30533967  0.92645143     0.01700
H1063       H  0.71189191  0.25335508  0.48945161     0.15500
H1064       H  0.65620218  0.23745262  0.90961979     0.15500
N1065       N  0.69252141  0.32847577  0.56105006    -0.00800
C1066       C  0.67636810  0.36343736  0.58946028     0.01800
C1067       C  0.64266954  0.35282092  0.61388764    -0.21100
C1068       C  0.64428242  0.31012879  0.61730878    -0.21300
C1069       C  0.67741017  0.29752843  0.59105119     0.01700
H1070       H  0.62449405  0.37357558  0.64183469     0.15500
H1071       H  0.62735535  0.29212873  0.64582827     0.15500
N1072       N  0.65773342  0.38015969  0.94752529    -0.00800
C1073       C  0.68936793  0.40225355  0.94129537     0.01800
C1074       C  0.69004592  0.43674098  0.98380339    -0.21100
C1075       C  0.65643516  0.43885241  0.01156741    -0.21300
C1076       C  0.63654203  0.40532288  0.98642827     0.01700
H1077       H  0.70960545  0.46208225  0.98581597     0.15500
H1078       H  0.64583437  0.46442977  0.04112982     0.15500
N1079       N  0.85811857  0.03634736  0.57537343    -0.00800
C1080       C  0.84268904  0.04093141  0.63266801     0.01800
C1081       C  0.87086841  0.54111281  0.67807167    -0.21100
C1082       C  0.90374015  0.53364282  0.64808610    -0.21300
C1083       C  0.89511740  0.03082049  0.58544375     0.01700
H1084       H  0.86747226  0.54064194  0.72785581     0.15500
H1085       H  0.93050996  0.52694058  0.66941827     0.15500
O1086       O  0.65561545  0.49721097  0.73689543    -0.75800
C1087       C  0.69910056  0.39360866  0.63001280     0.85200
O1088       O  0.74135135  0.41009799  0.87822977    -0.76900
O1089       O  0.81982791  0.40713808  0.69743057    -0.78400
O1090       O  0.79088983  0.04192503  0.69826587    -0.78200
O1091       O  0.69528337  0.04174734  0.70218596    -0.76800
Zn1092     Zn  0.69367206  0.44893413  0.75378830     1.55700
O1093       O  0.79475066  0.48971956  0.62414999    -0.78200
Cd1094     Cd  0.74464649  0.02537934  0.74640794     1.59700
Cd1095     Cd  0.77333120  0.44908290  0.82752461     1.59600
O1096       O  0.74703423  0.05238662  0.83585851    -0.78200
O1097       O  0.74542748  0.46407384  0.74972719    -1.88700
Cd1098     Cd  0.77082497  0.44066563  0.67145116     1.59900
O1099       O  0.77669349  0.00357733  0.89027848    -0.78200
O1100       O  0.73223268  0.40298368  0.61623905    -0.76800
C1101       C  0.70586320  0.40943842  0.88066738     0.85700
C1102       C  0.66228880  0.52860071  0.70557795     0.85400
O1103       O  0.68455717  0.40820841  0.68068353    -0.75800
C1104       C  0.80613428  0.02474494  0.64970856     0.86200
O1105       O  0.68460256  0.42338679  0.83732967    -0.75900
C1106       C  0.76195321  0.04046228  0.88650974     0.86300
C1107       C  0.83936212  0.40827379  0.74837908     0.86600
O1108       O  0.82609342  0.42310231  0.80050465    -0.78300
N1109       N  0.78529881  0.10532428  0.93894335    -0.00800
C1110       C  0.76388337  0.14093719  0.94426577     0.01800
C1111       C  0.73004795  0.13039201  0.96650251    -0.21100
C1112       C  0.72867479  0.08708621  0.96239854    -0.21300
C1113       C  0.76250551  0.07211538  0.94040216     0.01700
H1114       H  0.70547649  0.15078819  0.96714674     0.15500
H1115       H  0.70321744  0.06965590  0.96120945     0.15500
N1116       N  0.83386210  0.09709446  0.01860890    -0.00800
C1117       C  0.82438896  0.10146761  0.95693183     0.01800
C1118       C  0.84241069  0.06938181  0.92166765    -0.21100
C1119       C  0.85208786  0.03876777  0.96129035    -0.21300
C1120       C  0.84450124  0.05559332  0.52020038     0.01700
H1121       H  0.83930440  0.06340518  0.87163478     0.15500
H1122       H  0.86297530  0.00749102  0.94833614     0.15500
N1123       N  0.61659583  0.13446359  0.63683238    -0.00800
C1124       C  0.60764470  0.14062465  0.57565764     0.01800
C1125       C  0.63975480  0.13987242  0.54160769    -0.21100
C1126       C  0.66908194  0.13423596  0.58238296    -0.21300
C1127       C  0.65439062  0.13159518  0.63991747     0.01700
H1128       H  0.64175024  0.14571265  0.49285063     0.15500
H1129       H  0.69826988  0.13577756  0.57314141     0.15500
N1130       N  0.86830156  0.30300655  0.82730543    -0.00800
C1131       C  0.88650871  0.30853490  0.88256550     0.01800
C1132       C  0.86378566  0.33027188  0.92487522    -0.21100
C1133       C  0.83008234  0.33654649  0.89385526    -0.21300
C1134       C  0.83353664  0.31835783  0.83366216     0.01700
H1135       H  0.86914810  0.33562105  0.97454632     0.15500
H1136       H  0.80444180  0.34703729  0.91570778     0.15500
O1137       O  0.52855543  0.15192511  0.85629084    -0.75800
C1138       C  0.55877936  0.28664056  0.90760013     0.85200
O1139       O  0.54165758  0.15616917  0.57651372    -0.76900
O1140       O  0.99114319  0.28401497  0.56796353    -0.78400
O1141       O  0.91952983  0.24286063  0.87810139    -0.78200
O1142       O  0.96760260  0.14706549  0.83701706    -0.76800
Zn1143     Zn  0.53902943  0.19459075  0.92758658     1.55700
O1144       O  0.94064564  0.29519499  0.94304225    -0.78200
Cd1145     Cd  0.94774897  0.18917411  0.90975671     1.59700
Cd1146     Cd  0.99076363  0.18087221  0.54396724     1.59600
O1147       O  0.90963030  0.16065736  0.96759543    -0.78200
O1148       O  0.99228914  0.20839229  0.96281044    -1.88700
Cd1149     Cd  0.98969015  0.27019136  0.97625743     1.59900
O1150       O  0.95309926  0.13305565  0.52914029    -0.78200
O1151       O  0.53118381  0.30182724  0.93752978    -0.76800
C1152       C  0.57180162  0.15506490  0.54722098     0.85700
C1153       C  0.50130121  0.13565822  0.82509538     0.85400
O1154       O  0.56477964  0.24688010  0.89961389    -0.75800
C1155       C  0.91776957  0.28100086  0.90122571     0.86200
O1156       O  0.57273228  0.16811351  0.49236324    -0.75900
C1157       C  0.91889080  0.13886894  0.51379070     0.86300
C1158       C  0.98142198  0.26540654  0.61490049     0.86600
O1159       O  0.97542202  0.22605837  0.61346638    -0.78300
N1160       N  0.53997912  0.07369984  0.78566164    -0.00800
C1161       C  0.52706483  0.03378592  0.77951795     0.01800
C1162       C  0.49332964  0.03552918  0.74668381    -0.21100
C1163       C  0.48100702  0.07691079  0.74980909    -0.21300
C1164       C  0.50935652  0.09958506  0.77885707     0.01700
H1165       H  0.47505985  0.00943444  0.73831680     0.15500
H1166       H  0.45239173  0.08756098  0.74316385     0.15500
N1167       N  0.58313517  0.08585010  0.69996852    -0.00800
C1168       C  0.57575402  0.08629367  0.76264920     0.01800
C1169       C  0.58905826  0.12371118  0.78989704    -0.21100
C1170       C  0.59537907  0.14987339  0.74352796    -0.21300
C1171       C  0.59338165  0.12569341  0.68826055     0.01700
H1172       H  0.59028513  0.13291137  0.83915812     0.15500
H1173       H  0.60422417  0.18207281  0.75026420     0.15500
N1174       N  0.59705290  0.05037745  0.66288917    -0.00800
C1175       C  0.58526597  0.04681494  0.60180699     0.01800
C1176       C  0.61423897  0.54145467  0.56142806    -0.21100
C1177       C  0.64558631  0.53876327  0.59732641    -0.21300
C1178       C  0.63480404  0.04272097  0.65840063     0.01700
H1179       H  0.61238818  0.53477348  0.51139119     0.15500
H1180       H  0.67320430  0.53086544  0.58067426     0.15500
N1181       N  0.90210767  0.37294133  0.77345274    -0.00800
C1182       C  0.93341621  0.39317257  0.79427934     0.01800
C1183       C  0.93322588  0.43284977  0.77254030    -0.21100
C1184       C  0.90021345  0.43842109  0.74089760    -0.21300
C1185       C  0.88056434  0.40223935  0.74419347     0.01700
H1186       H  0.95163727  0.45770084  0.78864692     0.15500
H1187       H  0.88890374  0.46832929  0.72769460     0.15500
O1188       O  0.95305147  0.38420194  0.56660631    -0.75800
C1189       C  0.92092363  0.51126075  0.53984060     0.85200
O1190       O  0.98817500  0.38587227  0.85624413    -0.76900
O1191       O  0.50393457  0.02933804  0.88210628    -0.78400
O1192       O  0.53501015  0.50264355  0.60798635    -0.75400
O1193       O  0.50161679  0.41092945  0.62025253    -0.76800
Zn1194     Zn  0.95195296  0.42446792  0.99293107     1.55700
O1195       O  0.53843776  0.03867510  0.52434161    -0.78200
Cd1196     Cd  0.52764792  0.44558819  0.55923429     1.59700
Cd1197     Cd  0.52500531  0.42689976  0.90503531     1.59600
O1198       O  0.58014003  0.42254517  0.03542205    -0.78200
O1199       O  0.99882022  0.45091523  0.98068430    -1.88700
Cd1200     Cd  0.99466536  0.01272623  0.47343541     1.59900
O1201       O  0.57764880  0.40344103  0.93295464    -0.78200
O1202       O  0.94685395  0.03293202  0.51981675    -0.76800
C1203       C  0.95259812  0.38927672  0.85566691     0.85700
C1204       C  0.97356786  0.38738282  0.61661392     0.85400
O1205       O  0.91869163  0.47163116  0.52772552    -0.75800
C1206       C  0.54938187  0.03122516  0.57939426     0.86200
O1207       O  0.93468252  0.40154782  0.90468495    -0.75900
C1208       C  0.59554657  0.40825459  0.98526844     0.86300
C1209       C  0.52261626  0.01092057  0.83766795     0.86600
O1210       O  0.53456366  0.97288074  0.84044888    -0.78300
N1211       N  0.90475613  0.33080055  0.74749746    -0.00800
C1212       C  0.91352579  0.31790535  0.68758394     0.01800
C1213       C  0.89702627  0.27931636  0.67218583    -0.21100
C1214       C  0.88069787  0.26695847  0.72447499    -0.21300
C1215       C  0.88585719  0.29929724  0.76909015     0.01700
H1216       H  0.90117686  0.25938186  0.63008109     0.15500
H1217       H  0.86661776  0.23779983  0.72927748     0.15500
N1218       N  0.94938977  0.32465982  0.66187827    -0.00800
C1219       C  0.97483906  0.29317849  0.66968717     0.01800
C1220       C  0.00584314  0.30905118  0.70057600    -0.21100
C1221       C  0.00117055  0.35201652  0.70375582    -0.21300
C1222       C  0.96848325  0.36067313  0.67027804     0.01700
H1223       H  0.03243389  0.29255979  0.70514335     0.15500
H1224       H  0.02402200  0.37322437  0.71288436     0.15500
N1225       N  0.61901924  0.81228338  0.37501290    -0.00800
C1226       C  0.63020365  0.81630716  0.31686597     0.01800
C1227       C  0.59970018  0.82766749  0.28031103    -0.21100
C1228       C  0.56927965  0.82805136  0.31815819    -0.21300
C1229       C  0.58169119  0.81519172  0.37503836     0.01700
H1230       H  0.59848394  0.82935882  0.23032622     0.15500
H1231       H  0.54052435  0.83024189  0.30370131     0.15500
N1232       N  0.85352053  0.62856260  0.05663494    -0.00800
C1233       C  0.84445731  0.63766088  0.11778906     0.01800
C1234       C  0.87501933  0.63877885  0.15768350    -0.21100
C1235       C  0.90489880  0.63218713  0.12208567    -0.21300
C1236       C  0.89195095  0.62794390  0.06071812     0.01700
H1237       H  0.87563711  0.64771035  0.20721021     0.15500
H1238       H  0.93342407  0.63549408  0.13902056     0.15500
O1239       O  0.68731117  0.72923605  0.12488405    -0.75800
C1240       C  0.67796012  0.63690216  0.19629572     0.85200
O1241       O  0.69166652  0.78832647  0.32725714    -0.76900
O1242       O  0.76418772  0.64481804  0.33580895    -0.78400
O1243       O  0.80146772  0.69540452  0.13037023    -0.78200
O1244       O  0.73378585  0.77444966  0.13329651    -0.76800
Zn1245     Zn  0.68857766  0.71869567  0.21302313     1.55700
O1246       O  0.79703423  0.64055597  0.18885364    -0.78200
Cd1247     Cd  0.77145376  0.74194747  0.18511686     1.59700
Cd1248     Cd  0.73631373  0.74591148  0.32367093     1.59600
O1249       O  0.80453469  0.78354397  0.24287047    -0.78200
O1250       O  0.73902773  0.71621532  0.24154129    -1.88700
Cd1251     Cd  0.75283659  0.65594918  0.24359213     1.59900
O1252       O  0.77817234  0.78443835  0.33563423    -0.78200
O1253       O  0.71126601  0.62287665  0.19556938    -0.76800
C1254       C  0.66188035  0.79024201  0.29404542     0.85700
C1255       C  0.70095645  0.76445228  0.11504849     0.85400
O1256       O  0.66928286  0.66571622  0.23617280    -0.75800
C1257       C  0.81057969  0.65772610  0.14319518     0.86200
O1258       O  0.65644675  0.76463475  0.24767291    -0.75900
C1259       C  0.80301750  0.79593572  0.30085667     0.86300
C1260       C  0.75879196  0.66515384  0.38829085     0.86600
O1261       O  0.74503825  0.70278624  0.39257755    -0.78300
N1262       N  0.66108378  0.83684460  0.45935029    -0.00800
C1263       C  0.68895939  0.81898312  0.99388474     0.01800
C1264       C  0.69297062  0.77684940  0.97107839    -0.21100
C1265       C  0.66230649  0.76755229  0.43355011    -0.21300
C1266       C  0.64358119  0.80528490  0.42647651     0.01700
H1267       H  0.71184365  0.75335453  0.98946536     0.15500
H1268       H  0.65623491  0.73740399  0.40965569     0.15500
N1269       N  0.69248040  0.82847246  0.06108355    -0.00800
C1270       C  0.67631699  0.86342459  0.08950243     0.01800
C1271       C  0.64262410  0.85279215  0.11393384    -0.21100
C1272       C  0.64424379  0.81009779  0.11732779    -0.21300
C1273       C  0.67737327  0.79751219  0.09106336     0.01700
H1274       H  0.62444605  0.87353557  0.14189330     0.15500
H1275       H  0.62732302  0.79208612  0.14584182     0.15500
N1276       N  0.65770698  0.88011487  0.44748381    -0.00800
C1277       C  0.68933058  0.90222510  0.44124440     0.01800
C1278       C  0.68999330  0.93672364  0.48373060    -0.21100
C1279       C  0.65638117  0.93882674  0.51148545    -0.21300
C1280       C  0.63650419  0.90527845  0.48636742     0.01700
H1281       H  0.70953932  0.96207813  0.48572241     0.15500
H1282       H  0.64576567  0.96441351  0.54101211     0.15500
N1283       N  0.85813319  0.53637573  0.07544157    -0.00800
C1284       C  0.84269593  0.54094596  0.13273335     0.01800
C1285       C  0.87086969  0.04112549  0.17814137    -0.21100
C1286       C  0.90374487  0.03366108  0.14816391    -0.21300
C1287       C  0.89513209  0.53084973  0.08552075     0.01700
H1288       H  0.86746999  0.04063957  0.22792308     0.15500
H1289       H  0.93050918  0.02694871  0.16950178     0.15500
O1290       O  0.65560372  0.99726199  0.23687200    -0.75800
C1291       C  0.69904266  0.89361314  0.13003722     0.85200
O1292       O  0.74130374  0.91004410  0.37815850    -0.76900
O1293       O  0.81975281  0.90707988  0.19745067    -0.78400
O1294       O  0.79089420  0.54191910  0.19832473    -0.78200
O1295       O  0.69530307  0.54176510  0.20216356    -0.76800
Zn1296     Zn  0.69362893  0.94896124  0.25378229     1.55700
O1297       O  0.79476049  0.98971298  0.12420690    -0.78200
Cd1298     Cd  0.74463866  0.52538422  0.24644233     1.59700
Cd1299     Cd  0.77328497  0.94907602  0.32754080     1.59600
O1300       O  0.74700400  0.55239342  0.33589682    -0.78200
O1301       O  0.74539111  0.96407734  0.24974232    -1.88700
Cd1302     Cd  0.77078218  0.94066119  0.17146956     1.59900
O1303       O  0.77661845  0.50356770  0.39034378    -0.78200
O1304       O  0.73217608  0.90298575  0.11626400    -0.76800
C1305       C  0.70581560  0.90941498  0.38061538     0.85700
C1306       C  0.66230230  0.02863445  0.20553455     0.85400
O1307       O  0.68449536  0.90822621  0.18069659    -0.75800
C1308       C  0.80614391  0.52474119  0.14977047     0.86200
O1309       O  0.68455452  0.92340790  0.33731181    -0.75900
C1310       C  0.76189797  0.54046286  0.38656302     0.86300
C1311       C  0.83930261  0.90823821  0.24838250     0.86600
O1312       O  0.82605146  0.92310148  0.30050539    -0.78300
N1313       N  0.78525924  0.60532925  0.43896451    -0.00800
C1314       C  0.76385696  0.64095251  0.44426411     0.01800
C1315       C  0.73001820  0.63042939  0.46651337    -0.21100
C1316       C  0.72863105  0.58712276  0.46243450    -0.21300
C1317       C  0.76245763  0.57212863  0.44044576     0.01700
H1318       H  0.70545575  0.65084024  0.46717373     0.15500
H1319       H  0.70316845  0.56970330  0.46126818     0.15500
N1320       N  0.83383990  0.59707682  0.51859152    -0.00800
C1321       C  0.82435277  0.60146629  0.45692329     0.01800
C1322       C  0.84236389  0.56938739  0.42162843    -0.21100
C1323       C  0.85205823  0.53876486  0.46122774    -0.21300
C1324       C  0.84451869  0.55560940  0.02025310     0.01700
H1325       H  0.83924165  0.56342190  0.37159556     0.15500
H1326       H  0.86294439  0.50749086  0.44825108     0.15500
N1327       N  0.61661431  0.63448868  0.13676503    -0.00800
C1328       C  0.60765400  0.64068921  0.07560339     0.01800
C1329       C  0.63976114  0.63998858  0.04155134    -0.21100
C1330       C  0.66909401  0.63434329  0.08230940    -0.21300
C1331       C  0.65441218  0.63164100  0.13983609     0.01700
H1332       H  0.64175055  0.64587853  0.99281063     0.15500
H1333       H  0.69827884  0.63592834  0.07307414     0.15500
N1334       N  0.86833489  0.80289200  0.32720563    -0.00800
C1335       C  0.88654206  0.80844280  0.38246361     0.01800
C1336       C  0.86384351  0.83025852  0.42473103    -0.21100
C1337       C  0.83015279  0.83656644  0.39369048    -0.21300
C1338       C  0.83359238  0.81832010  0.33352947     0.01700
H1339       H  0.86921079  0.83565365  0.47439388     0.15500
H1340       H  0.80452324  0.84713096  0.41551414     0.15500
O1341       O  0.52857129  0.65186287  0.35630707    -0.75800
C1342       C  0.55877206  0.78657330  0.40767546     0.85200
O1343       O  0.54166397  0.65623761  0.07648736    -0.76900
O1344       O  0.99120674  0.78409030  0.06792925    -0.78400
O1345       O  0.91954502  0.74275542  0.37807846    -0.78200
O1346       O  0.96761829  0.64697970  0.33702627    -0.76800
Zn1347     Zn  0.53903104  0.69451898  0.42762368     1.55700
O1348       O  0.94065177  0.79510115  0.44300574    -0.78200
Cd1349     Cd  0.94775788  0.68907782  0.40977013     1.59700
Cd1350     Cd  0.99077446  0.68094574  0.04391391     1.59600
O1351       O  0.90963049  0.66057223  0.46759806    -0.78200
O1352       O  0.99228585  0.70830473  0.46285214    -1.88700
Cd1353     Cd  0.98967812  0.77010342  0.47629917     1.59900
O1354       O  0.95311762  0.63312333  0.02908809    -0.78200
O1355       O  0.53119272  0.80175715  0.43764901    -0.76800
C1356       C  0.57180362  0.65512618  0.04718299     0.85700
C1357       C  0.50132187  0.63559703  0.32509694     0.85400
O1358       O  0.56475991  0.74681376  0.39964563    -0.75800
C1359       C  0.91778635  0.78090166  0.40117583     0.86200
O1360       O  0.57272588  0.66817350  0.99232388    -0.75900
C1361       C  0.91890572  0.63893227  0.01376205     0.86300
C1362       C  0.98145426  0.76547875  0.11484568     0.86600
O1363       O  0.97542394  0.72613690  0.11338628    -0.78300
N1364       N  0.54002071  0.57367793  0.28561559    -0.00800
C1365       C  0.52711661  0.53375837  0.27947079     0.01800
C1366       C  0.49338698  0.53548953  0.24661923    -0.21100
C1367       C  0.48104906  0.57686670  0.24976101    -0.21300
C1368       C  0.50938871  0.59954808  0.27882676     0.01700
H1369       H  0.47512756  0.50938396  0.23824325     0.15500
H1370       H  0.45243034  0.58750599  0.24312187     0.15500
N1371       N  0.58315715  0.58586569  0.19989930    -0.00800
C1372       C  0.57578326  0.58629946  0.26258275     0.01800
C1373       C  0.58907963  0.62372057  0.28983359    -0.21100
C1374       C  0.59540386  0.64988544  0.24346888    -0.21300
C1375       C  0.59340459  0.62571056  0.18819829     0.01700
H1376       H  0.59030797  0.63291825  0.33909503     0.15500
H1377       H  0.60425509  0.68208245  0.25020962     0.15500
N1378       N  0.59708401  0.55040169  0.16281728    -0.00800
C1379       C  0.58530217  0.54683990  0.10173645     0.01800
C1380       C  0.61427671  0.04149073  0.06136173    -0.21100
C1381       C  0.64562407  0.03881584  0.09726909    -0.21300
C1382       C  0.63483488  0.54275962  0.15834069     0.01700
H1383       H  0.61243003  0.03481053  0.01132453     0.15500
H1384       H  0.67324609  0.03093018  0.08062451     0.15500
N1385       N  0.90205704  0.87290507  0.27342240    -0.00800
C1386       C  0.93335316  0.89315908  0.29424881     0.01800
C1387       C  0.93315530  0.93282897  0.27248410    -0.21100
C1388       C  0.90014561  0.93837608  0.24082560    -0.21300
C1389       C  0.88050323  0.90219300  0.24415602     0.01700
H1390       H  0.95156344  0.95769060  0.28856413     0.15500
H1391       H  0.88882906  0.96827446  0.22759223     0.15500
O1392       O  0.95308098  0.88425470  0.06662840    -0.75800
C1393       C  0.92094151  0.01129317  0.03991677     0.85200
O1394       O  0.98812558  0.88585629  0.35617760    -0.76900
O1395       O  0.50399174  0.52933307  0.38207966    -0.78400
O1396       O  0.53501714  0.00271542  0.10797108    -0.75400
O1397       O  0.50162833  0.91099299  0.12031709    -0.76800
Zn1398     Zn  0.95192860  0.92442407  0.49289815     1.55700
O1399       O  0.53846930  0.53870154  0.02427937    -0.78200
Cd1400     Cd  0.52767343  0.94563587  0.05928592     1.59700
Cd1401     Cd  0.52497133  0.92685927  0.40497322     1.59600
O1402       O  0.58010293  0.92248461  0.53535172    -0.78200
O1403       O  0.99879542  0.95088351  0.48063566    -1.88700
Cd1404     Cd  0.99466795  0.51275127  0.97347086     1.59900
O1405       O  0.57761321  0.90339020  0.43288115    -0.78200
O1406       O  0.94687976  0.53296644  0.01991268    -0.76800
C1407       C  0.95254908  0.88926089  0.35562259     0.85700
C1408       C  0.97358249  0.88744278  0.11665110     0.85400
O1409       O  0.91870457  0.97166681  0.02776892    -0.75800
C1410       C  0.54941120  0.53126906  0.07933772     0.86200
O1411       O  0.93464285  0.90151986  0.40465492    -0.75900
C1412       C  0.59550942  0.90819850  0.48519747     0.86300
C1413       C  0.52264873  0.51089639  0.33762428     0.86600
O1414       O  0.53454641  0.47283698  0.34038187    -0.78300
N1415       N  0.90475124  0.83077534  0.24742919    -0.00800
C1416       C  0.91352910  0.81792181  0.18750550     0.01800
C1417       C  0.89705585  0.77932259  0.17206382    -0.21100
C1418       C  0.88075472  0.76690995  0.22434533    -0.21300
C1419       C  0.88590077  0.79922670  0.26900082     0.01700
H1420       H  0.90121208  0.75941777  0.12993203     0.15500
H1421       H  0.86669376  0.73773461  0.22911321     0.15500
N1422       N  0.94939750  0.82470899  0.16183783    -0.00800
C1423       C  0.97485706  0.79323846  0.16963660     0.01800
C1424       C  0.00584641  0.80911130  0.20056800    -0.21100
C1425       C  0.00115315  0.85207434  0.20380973    -0.21300
C1426       C  0.96847730  0.86072850  0.17029784     0.01700
H1427       H  0.03244155  0.79263013  0.20513436     0.15500
H1428       H  0.02399216  0.87329238  0.21299397     0.15500
N1429       N  0.61903966  0.81235831  0.87497679    -0.00800
C1430       C  0.63023756  0.81638789  0.81683832     0.01800
C1431       C  0.59974263  0.82776188  0.78027255    -0.21100
C1432       C  0.56931361  0.82813788  0.81809966    -0.21300
C1433       C  0.58171125  0.81526229  0.87497651     0.01700
H1434       H  0.59853577  0.82946238  0.73028887     0.15500
H1435       H  0.54056198  0.83033725  0.80363088     0.15500
N1436       N  0.85349065  0.62853641  0.55663973    -0.00800
C1437       C  0.84441653  0.63763136  0.61779171     0.01800
C1438       C  0.87497202  0.63875559  0.65770054    -0.21100
C1439       C  0.90485799  0.63216870  0.62211972    -0.21300
C1440       C  0.89192101  0.62791663  0.56074752     0.01700
H1441       H  0.87558065  0.64768961  0.70722674     0.15500
H1442       H  0.93338041  0.63547661  0.63906895     0.15500
O1443       O  0.68733291  0.72924803  0.62487116    -0.75800
C1444       C  0.67792698  0.63690930  0.69638497     0.85200
O1445       O  0.69167742  0.78835050  0.82726254    -0.76900
O1446       O  0.76421993  0.64483287  0.83582118    -0.78400
O1447       O  0.80148312  0.69542042  0.63044157    -0.78200
O1448       O  0.73380712  0.77446131  0.63332298    -0.76800
Zn1449     Zn  0.68857512  0.71873085  0.71301605     1.55700
O1450       O  0.79696739  0.64052180  0.68880173    -0.78200
Cd1451     Cd  0.77145827  0.74196155  0.68517516     1.59700
Cd1452     Cd  0.73629468  0.74589765  0.82370030     1.59600
O1453       O  0.80450864  0.78357864  0.74295489    -0.78200
O1454       O  0.73901681  0.71621854  0.74156102    -1.88700
Cd1455     Cd  0.75281429  0.65594984  0.74362302     1.59900
O1456       O  0.77815649  0.78440637  0.83571699    -0.78200
O1457       O  0.71122471  0.62285895  0.69571290    -0.76800
C1458       C  0.66190414  0.79030171  0.79402540     0.85700
C1459       C  0.70098250  0.76446446  0.61504792     0.85400
O1460       O  0.66924932  0.66577236  0.73618798    -0.75800
C1461       C  0.81054468  0.65771355  0.64319118     0.86200
O1462       O  0.65646711  0.76470726  0.74763798    -0.75900
C1463       C  0.80298994  0.79594298  0.80095086     0.86300
C1464       C  0.75880525  0.66515545  0.88830531     0.86600
O1465       O  0.74501142  0.70276990  0.89259948    -0.78300
N1466       N  0.66109020  0.83688378  0.95935941    -0.00800
C1467       C  0.68897462  0.81896544  0.49385558     0.01800
C1468       C  0.69299360  0.77682853  0.47106932    -0.21100
C1469       C  0.66229249  0.76759532  0.93352682    -0.21300
C1470       C  0.64358715  0.80533917  0.92645130     0.01700
H1471       H  0.71188193  0.75334732  0.48945341     0.15500
H1472       H  0.65621587  0.73745442  0.90961388     0.15500
N1473       N  0.69251872  0.82847269  0.56104804    -0.00800
C1474       C  0.67636598  0.86343479  0.58945756     0.01800
C1475       C  0.64266698  0.85281963  0.61388451    -0.21100
C1476       C  0.64427954  0.81012782  0.61730867    -0.21300
C1477       C  0.67740716  0.79752655  0.59105107     0.01700
H1478       H  0.62449168  0.87357526  0.64183045     0.15500
H1479       H  0.62735246  0.79212931  0.64583039     0.15500
N1480       N  0.65773039  0.88016048  0.94752773    -0.00800
C1481       C  0.68936198  0.90225858  0.94129485     0.01800
C1482       C  0.69003553  0.93674930  0.98379703    -0.21100
C1483       C  0.65642576  0.93885551  0.01156407    -0.21300
C1484       C  0.63653693  0.90532103  0.98643069     0.01700
H1485       H  0.70959124  0.96209420  0.98580459     0.15500
H1486       H  0.64582161  0.96443334  0.04112335     0.15500
N1487       N  0.85812408  0.53634763  0.57537758    -0.00800
C1488       C  0.84269402  0.54093250  0.63267149     0.01800
C1489       C  0.87086383  0.04110714  0.67806740    -0.21100
C1490       C  0.90373479  0.03363489  0.64808090    -0.21300
C1491       C  0.89512323  0.53082498  0.58544865     0.01700
H1492       H  0.86746789  0.04063415  0.72785135     0.15500
H1493       H  0.93050488  0.02692961  0.66941258     0.15500
O1494       O  0.65561278  0.99720764  0.73689389    -0.75800
C1495       C  0.69909880  0.89360530  0.63001084     0.85200
O1496       O  0.74134699  0.91009407  0.87822895    -0.76900
O1497       O  0.81982707  0.90713503  0.69742766    -0.78400
O1498       O  0.79089385  0.54192729  0.69826755    -0.78200
O1499       O  0.69528647  0.54174722  0.70217943    -0.76800
Zn1500     Zn  0.69366975  0.94893109  0.75378560     1.55700
O1501       O  0.79474663  0.98971745  0.62414782    -0.78200
Cd1502     Cd  0.74464885  0.52538299  0.74640638     1.59700
Cd1503     Cd  0.77332945  0.94907558  0.82752237     1.59600
O1504       O  0.74703480  0.55239405  0.83585528    -0.78200
O1505       O  0.74542558  0.96406975  0.74972563    -1.88700
Cd1506     Cd  0.77082321  0.94066218  0.67144947     1.59900
O1507       O  0.77669369  0.50358638  0.89027867    -0.78200
O1508       O  0.73223116  0.90297978  0.61623773    -0.76800
C1509       C  0.70585869  0.90943814  0.88066641     0.85700
C1510       C  0.66228584  0.02859985  0.70558154     0.85400
O1511       O  0.68455512  0.90820537  0.68068116    -0.75800
C1512       C  0.80613892  0.52474657  0.64971135     0.86200
O1513       O  0.68459925  0.92338634  0.83732720    -0.75900
C1514       C  0.76195365  0.54047133  0.88650759     0.86300
C1515       C  0.83936098  0.90826689  0.74837649     0.86600
O1516       O  0.82609195  0.92309291  0.80050323    -0.78300
N1517       N  0.78530137  0.60533317  0.93894271    -0.00800
C1518       C  0.76388805  0.64094783  0.94426665     0.01800
C1519       C  0.73005179  0.63040460  0.96650229    -0.21100
C1520       C  0.72867552  0.58709893  0.96239367    -0.21300
C1521       C  0.76250583  0.57212590  0.94039868     0.01700
H1522       H  0.70548164  0.65080305  0.96714926     0.15500
H1523       H  0.70321706  0.56967066  0.96120291     0.15500
N1524       N  0.83386335  0.59709804  0.01860932    -0.00800
C1525       C  0.82439117  0.60147303  0.95693226     0.01800
C1526       C  0.84241134  0.56938657  0.92166727    -0.21100
C1527       C  0.85208534  0.53877076  0.96128870    -0.21300
C1528       C  0.84450538  0.55559111  0.52020359     0.01700
H1529       H  0.83930556  0.56341133  0.87163407     0.15500
H1530       H  0.86297088  0.50749340  0.94833342     0.15500
N1531       N  0.61659907  0.63446201  0.63683366    -0.00800
C1532       C  0.60764874  0.64062593  0.57565998     0.01800
C1533       C  0.63975931  0.63988031  0.54161215    -0.21100
C1534       C  0.66908619  0.63424452  0.58238815    -0.21300
C1535       C  0.65439387  0.63159757  0.63992085     0.01700
H1536       H  0.64175483  0.64572525  0.49285689     0.15500
H1537       H  0.69827413  0.63579181  0.57314871     0.15500
N1538       N  0.86830630  0.80299338  0.82728787    -0.00800
C1539       C  0.88651469  0.80852777  0.88254575     0.01800
C1540       C  0.86379619  0.83027793  0.92484909    -0.21100
C1541       C  0.83009374  0.83655524  0.89382779    -0.21300
C1542       C  0.83354477  0.81835575  0.83364045     0.01700
H1543       H  0.86916072  0.83563637  0.97451827     0.15500
H1544       H  0.80445521  0.84705764  0.91567695     0.15500
O1545       O  0.52855627  0.65192896  0.85628066    -0.75800
C1546       C  0.55878093  0.78664478  0.90759959     0.85200
O1547       O  0.54166129  0.65616339  0.57651763    -0.76900
O1548       O  0.99115201  0.78401453  0.56796593    -0.78400
O1549       O  0.91953301  0.74285190  0.87809286    -0.78200
O1550       O  0.96760674  0.64705919  0.83701222    -0.76800
Zn1551     Zn  0.53903184  0.69459280  0.92757941     1.55700
O1552       O  0.94064948  0.79518880  0.94302815    -0.78200
Cd1553     Cd  0.94775211  0.68916676  0.90975126     1.59700
Cd1554     Cd  0.99076531  0.68087253  0.54396786     1.59600
O1555       O  0.90963346  0.66065026  0.96758925    -0.78200
O1556       O  0.99229105  0.70838633  0.96280740    -1.88700
Cd1557     Cd  0.98969121  0.77018519  0.97625342     1.59900
O1558       O  0.95309778  0.63305873  0.52914680    -0.78200
O1559       O  0.53118300  0.80183036  0.93752407    -0.76800
C1560       C  0.57180509  0.65506360  0.54722467     0.85700
C1561       C  0.50130177  0.63566047  0.82508752     0.85400
O1562       O  0.56478245  0.74688444  0.89961334    -0.75800
C1563       C  0.91777364  0.78099326  0.90121235     0.86200
O1564       O  0.57273504  0.66811519  0.49236889    -0.75900
C1565       C  0.91888949  0.63887204  0.51379564     0.86300
C1566       C  0.98143145  0.76540665  0.61490375     0.86600
O1567       O  0.97542882  0.72605912  0.61346954    -0.78300
N1568       N  0.53997845  0.57370038  0.78565751    -0.00800
C1569       C  0.52706325  0.53378688  0.77951702     0.01800
C1570       C  0.49332764  0.53553019  0.74668434    -0.21100
C1571       C  0.48100643  0.57691222  0.74980547    -0.21300
C1572       C  0.50935675  0.59958657  0.77885050     0.01700
H1573       H  0.47505663  0.50943613  0.73832138     0.15500
H1574       H  0.45239133  0.58756323  0.74316095     0.15500
N1575       N  0.58313689  0.58584847  0.69996747    -0.00800
C1576       C  0.57575463  0.58629194  0.76264764     0.01800
C1577       C  0.58905933  0.62370892  0.78989633    -0.21100
C1578       C  0.59538041  0.64987149  0.74352791    -0.21300
C1579       C  0.59338396  0.62569166  0.68826047     0.01700
H1580       H  0.59028558  0.63290877  0.83915755     0.15500
H1581       H  0.60422509  0.68207105  0.75026468     0.15500
N1582       N  0.59705480  0.55037579  0.66288847    -0.00800
C1583       C  0.58526728  0.54681352  0.60180677     0.01800
C1584       C  0.61423804  0.04145147  0.56142969    -0.21100
C1585       C  0.64558475  0.03875948  0.59732950    -0.21300
C1586       C  0.63480609  0.54272140  0.65839807     0.01700
H1587       H  0.61238763  0.03476841  0.51139315     0.15500
H1588       H  0.67320284  0.03085954  0.58067897     0.15500
N1589       N  0.90210840  0.87293513  0.77344887    -0.00800
C1590       C  0.93341604  0.89316876  0.79427510     0.01800
C1591       C  0.93322450  0.93284492  0.77253279    -0.21100
C1592       C  0.90021179  0.93841425  0.74089042    -0.21300
C1593       C  0.88056355  0.90223233  0.74418977     0.01700
H1594       H  0.95163534  0.95769689  0.78863757     0.15500
H1595       H  0.88890118  0.96832171  0.72768567     0.15500
O1596       O  0.95305469  0.88420211  0.56660751    -0.75800
C1597       C  0.92091710  0.01125769  0.53983379     0.85200
O1598       O  0.98817551  0.88587299  0.85624040    -0.76900
O1599       O  0.50393098  0.52934004  0.88210416    -0.78400
O1600       O  0.53500754  0.00264800  0.60798643    -0.75400
O1601       O  0.50162748  0.91093081  0.62025643    -0.76800
Zn1602     Zn  0.95195303  0.92446719  0.99293075     1.55700
O1603       O  0.53843997  0.53867149  0.52434175    -0.78200
Cd1604     Cd  0.52765346  0.94559129  0.55923571     1.59700
Cd1605     Cd  0.52500203  0.92689579  0.90503207     1.59600
O1606       O  0.58013330  0.92253133  0.03542470    -0.78200
O1607       O  0.99882222  0.95091138  0.98068636    -1.88700
Cd1608     Cd  0.99467170  0.51272352  0.47344030     1.59900
O1609       O  0.57764578  0.90344062  0.93295271    -0.78200
O1610       O  0.94686322  0.53293290  0.51982761    -0.76800
C1611       C  0.95259851  0.88927638  0.85566367     0.85700
C1612       C  0.97357205  0.88738458  0.61661389     0.85400
O1613       O  0.91868848  0.97162737  0.52772328    -0.75800
C1614       C  0.54938408  0.53122117  0.57939407     0.86200
O1615       O  0.93468311  0.90154840  0.90468181    -0.75900
C1616       C  0.59554157  0.90824806  0.98526905     0.86300
C1617       C  0.52261557  0.51092317  0.83766855     0.86600
O1618       O  0.53456698  0.47288504  0.84045319    -0.78300
N1619       N  0.90476080  0.83079561  0.74748833    -0.00800
C1620       C  0.91353304  0.81790475  0.68757452     0.01800
C1621       C  0.89703470  0.77931606  0.67216848    -0.21100
C1622       C  0.88070524  0.76695334  0.72445362    -0.21300
C1623       C  0.88586307  0.79928905  0.76907415     0.01700
H1624       H  0.90118720  0.75938460  0.63006130     0.15500
H1625       H  0.86662552  0.73779363  0.72925010     0.15500
N1626       N  0.94939915  0.82465983  0.66187810    -0.00800
C1627       C  0.97484899  0.79317951  0.66968949     0.01800
C1628       C  0.00585298  0.80905427  0.70057615    -0.21100
C1629       C  0.00117892  0.85201948  0.70375419    -0.21300
C1630       C  0.96849070  0.86067420  0.67027768     0.01700
H1631       H  0.03244422  0.79256403  0.70514387     0.15500
H1632       H  0.02402961  0.87322858  0.71288174     0.15500
loop_ 
_geom_bond_atom_site_label_1 
_geom_bond_atom_site_label_2 
_geom_bond_distance 
_geom_bond_site_symmetry_2 
_ccdc_geom_bond_type 
N1            C5   1.343       .  A
N1            C2   1.341       .  A
N1           C42   1.419       .  S
C2            C3   1.383       .  A
C2           C30   1.468       .  S
C3            C4   1.384       .  A
C3            H6   1.079       .  S
C4            C5   1.373       .  A
C4            H7   1.072       .  S
C5          C118   1.473       .  S
N8           C12   1.382       .  A
N8            C9   1.375       .  A
N8          N300   1.437       .  S
C9           C10   1.372       .  A
C9           C33   1.464       .  S
C10          C11   1.343       .  A
C10          H13   1.084       .  S
C11          C12   1.385       .  A
C11          H14   1.083       .  S
C12         C137   1.487       .  S
O15          C31   1.270       .  A
O15         Zn21   1.946       .  S
C16         C107   1.461       .  S
C16          O32   1.253       .  A
C16          O29   1.267       .  A
O17          C30   1.271       .  A
O17         Cd24   2.069       .  S
O18          C36   1.281       .  A
O18         Cd27   2.064       .  S
O19          C33   1.281       .  A
O19         Cd23   2.123       .  S
O20          C31   1.275       .  A
O20         Cd23   2.032       .  S
Zn21         O32   1.944       .  S
Zn21         O34   1.961       .  S
Zn21         O26   1.898       .  S
O22          C33   1.272       .  A
O22         Cd27   2.037       .  S
Cd23         O25   2.119       .  S
Cd23         O26   1.945       .  S
Cd24         O28   1.969       .  S
Cd24         O37   2.098       .  S
Cd24         O26   1.951       .  S
O25          C35   1.285       .  A
O26         Cd27   1.972       .  S
Cd27         O29   2.063       .  S
O28          C35   1.261       .  A
C30          O34   1.259       .  A
C31          C49   1.445       .  S
C35         C114   1.463       .  S
C36          C90   1.476       .  S
C36          O37   1.282       .  A
N38          C42   1.349       .  A
N38         C243   1.363       .  A
N38          N52   1.419       .  S
C39         N242   1.363       .  A
C39          N45   1.459   1_556  S
C39          C40   1.403       .  A
C40         C245   1.373       .  A
C40          H43   1.082       .  S
C41          C42   1.376       .  A
C41         C244   1.373       .  A
C41          H44   1.083       .  S
N45          C49   1.350       .  A
N45          C46   1.358       .  A
C46          C47   1.395       .  A
C46          C67   1.496       .  S
C47          C48   1.366       .  A
C47          H50   1.083       .  S
C48          C49   1.373       .  A
C48          H51   1.080       .  S
N52          C56   1.356       .  A
N52          C53   1.369       .  A
C53          C54   1.381       .  A
C53          C81   1.484       .  S
C54          C55   1.363       .  A
C54          H57   1.083       .  S
C55          C56   1.373       .  A
C55          H58   1.068       .  S
C56         C188   1.474       .  S
N59          C63   1.350       .  A
N59          C60   1.365       .  A
N59         C100   1.438       .  S
C60         C469   1.384       .  A
C60          C84   1.491       .  S
C61          C62   1.372       .  A
C61         C468   1.384       .  A
C61          H64   1.083       .  S
C62         C471   1.370       .  A
C62          H65   1.075       .  S
C63         C470   1.370       .  A
C63         C577   1.468       .  S
O66          C82   1.275       .  A
O66         Zn72   2.072       .  S
C67          O83   1.277       .  A
C67          O80   1.285       .  A
O68          C81   1.280       .  A
O68         Cd75   2.097       .  S
O69          C87   1.282       .  A
O69         Cd78   2.114       .  S
O70          C84   1.278       .  A
O70         Cd74   2.085       .  S
O71         C490   1.276       .  A
O71         Cd74   2.058       .  S
Zn72         O83   1.995       .  S
Zn72         O85   2.060       .  S
Zn72         O77   1.942       .  S
O73         C492   1.282       .  A
O73         Cd78   2.136       .  S
Cd74         O76   2.054       .  S
Cd74        O485   1.958   1_545  S
Cd75         O88   2.131       .  S
Cd75        O487   2.130       .  S
Cd75         O77   2.002       .  S
O76          C86   1.275       .  A
O77         Cd78   2.029       .  S
O77        Cd482   1.958       .  S
Cd78         O80   2.139       .  S
O79          C86   1.282       .  A
O79        Cd483   2.130   1_545  S
C81          O85   1.281       .  A
C82         C566   1.477       .  S
C82         O479   1.276       .  A
C84         O481   1.282   1_545  A
C86          C93   1.484       .  S
C87         C165   1.494       .  S
C87          O88   1.288       .  A
N89          C93   1.359       .  A
N89          C90   1.353       .  A
N89          C97   1.450       .  S
C90          C91   1.380       .  A
C91          C92   1.378       .  A
C91          H94   1.082       .  S
C92          C93   1.380       .  A
C92          H95   1.083       .  S
N96          C97   1.374       .  A
N96         C304   1.368       .  A
N96         N212   1.438       .  S
C97          C98   1.389       .  A
C98          C99   1.368       .  A
C98         H101   1.083       .  S
C99         C304   1.376       .  A
C99         H102   1.082       .  S
C100        N300   1.368       .  A
C100        C303   1.376   1_554  A
N103        C107   1.360       .  A
N103        C104   1.370       .  A
N103        C151   1.453       .  S
C104        C105   1.386       .  A
C104        C132   1.484       .  S
C105        C106   1.366       .  A
C105        H108   1.082   1_554  S
C106        C107   1.369       .  A
C106        H109   1.078       .  S
N110        C114   1.337       .  A
N110        C111   1.342       .  A
N110        C195   1.416       .  S
C111        C112   1.381       .  A
C111        C135   1.469       .  S
C112        C113   1.381       .  A
C112        H115   1.082       .  S
C113        C114   1.390       .  A
C113        H116   1.083       .  S
O117        C133   1.273       .  A
O117       Zn123   2.013       .  S
C118        O134   1.280       .  A
C118        O131   1.267       .  A
O119        C132   1.270       .  A
O119       Cd942   2.091   1_455  S
O120        C138   1.268       .  A
O120       Cd333   1.991   1_554  S
O121        C135   1.282       .  A
O121       Cd125   2.105       .  S
O122        C949   1.284       .  A
O122       Cd125   2.119       .  S
Zn123       O134   2.062       .  S
Zn123       O340   2.027       .  S
Zn123       O944   1.894   1_455  S
O124        C135   1.269       .  A
O124       Cd129   2.043       .  S
Cd125       O127   2.141       .  S
Cd125       O128   2.022       .  S
Cd126       O130   2.069       .  S
Cd126       O139   2.080       .  S
Cd126       O935   2.091       .  S
Cd126       O332   2.006   1_554  S
O127        C341   1.278       .  A
O128       Zn939   1.894       .  S
O128       Cd129   1.970       .  S
O128       Cd330   2.006       .  S
Cd129       O324   1.991       .  S
Cd129       O947   2.053       .  S
O130        C137   1.275       .  A
O131       Cd945   2.053   1_455  S
C132        O136   1.279   1_554  A
C133        C144   1.496       .  S
C133        O938   1.284   1_455  A
O136       Zn327   2.027       .  S
C137        O331   1.278   1_554  A
C138        C199   1.447       .  S
C138        O139   1.276       .  A
N140        C144   1.367       .  A
N140        C141   1.363       .  A
N140        C148   1.469       .  S
C141        C142   1.386   1_455  A
C141        C189   1.504       .  S
C142        C143   1.377       .  A
C142        H145   1.076       .  S
C143        C144   1.376   1_655  A
C143        H146   1.083       .  S
N147        C151   1.373       .  A
N147        C148   1.381       .  A
N147        N154   1.427       .  S
C148        C149   1.383       .  A
C149        C150   1.370       .  A
C149        H152   1.080       .  S
C150        C151   1.373       .  A
C150        H153   1.081       .  S
N154        C158   1.378       .  A
N154        C155   1.366       .  A
C155        C564   1.377       .  A
C155        C186   1.452       .  S
C156        C157   1.350       .  A
C156        C563   1.377       .  A
C156        H159   1.083       .  S
C157        C566   1.378       .  A
C157        H160   1.084       .  S
C158        C565   1.378       .  A
C158        C490   1.477       .  S
N161        C165   1.369       .  A
N161        C162   1.362       .  A
N161        N191   1.421       .  S
C162        C163   1.376       .  A
C162        C183   1.481       .  S
C163        C164   1.363       .  A
C163        H166   1.079       .  S
C164        C165   1.376       .  A
C164        H167   1.077       .  S
O168        C184   1.285       .  A
O168       Zn378   2.102   1_554  S
C169        C471   1.468       .  S
C169        O185   1.276       .  A
C169        O590   1.278       .  A
O170        C183   1.281       .  A
O170       Cd993   2.095       .  S
O171        C189   1.285       .  A
O171      Cd1200   2.108   1_455  S
O172        C594   1.263       .  A
O172       Cd176   2.056       .  S
O173       C1000   1.272   1_455  A
O173       Cd176   2.037       .  S
Zn174       O187   2.070       .  S
Zn174       O372   2.103       .  S
Zn174       O389   2.014       .  S
Zn174       O179   1.939       .  S
O175        C186   1.271       .  A
O175       Cd996   2.050   1_454  S
Cd176       O382   2.073       .  S
Cd176      O1199   1.969   1_454  S
Cd177       O181   2.100       .  S
Cd177       O986   2.095   1_455  S
Cd177       O598   2.127       .  S
Cd177       O995   2.002   1_455  S
O178        C188   1.279       .  A
O178       Cd380   2.073       .  S
O179      Cd1196   1.970       .  S
O179       Cd993   2.002       .  S
O179       Cd792   1.987       .  S
Cd180       O182   2.080   1_556  S
Cd180      O1191   2.108       .  S
Cd180       O991   2.050   1_556  S
Cd180       O791   1.987   1_545  S
O181        C188   1.281       .  A
O182        C577   1.278       .  A
C183        O187   1.286       .  A
C184        C202   1.498       .  S
C184        O989   1.272       .  A
O185       Zn378   2.014   1_554  S
C186        O580   1.263       .  A
C189        O190   1.278   1_545  A
O190       Cd585   2.127       .  S
N191        C195   1.344       .  A
N191        C192   1.370       .  A
C192        N198   1.447       .  S
C192        C193   1.395       .  A
C193        C194   1.371       .  A
C193        H196   1.082       .  S
C194        C195   1.372       .  A
C194        H197   1.083       .  S
N198        C202   1.352       .  A
N198        C199   1.353       .  A
C199        C200   1.371       .  A
C200        C201   1.371       .  A
C200        H203   1.083       .  S
C201        C202   1.390       .  A
C201        H204   1.083       .  S
N205        C209   1.343       .  A
N205        C206   1.341       .  A
N205        C246   1.419       .  S
C206        C207   1.383       .  A
C206        C234   1.468       .  S
C207        C208   1.384       .  A
C207        H210   1.079       .  S
C208        C209   1.373       .  A
C208        H211   1.072       .  S
C209        C322   1.473       .  S
N212        C216   1.382       .  A
N212        C213   1.375       .  A
C213        C214   1.372       .  A
C213        C237   1.464       .  S
C214        C215   1.343       .  A
C214        H217   1.084       .  S
C215        C216   1.385       .  A
C215        H218   1.083       .  S
C216        C341   1.487       .  S
O219        C235   1.270       .  A
O219       Zn225   1.946       .  S
C220        C311   1.461       .  S
C220        O236   1.253       .  A
C220        O233   1.267       .  A
O221        C234   1.271       .  A
O221       Cd228   2.069       .  S
O222        C240   1.281       .  A
O222       Cd231   2.064       .  S
O223        C237   1.281       .  A
O223       Cd227   2.123       .  S
O224        C235   1.275       .  A
O224       Cd227   2.032       .  S
Zn225       O236   1.944       .  S
Zn225       O238   1.961       .  S
Zn225       O230   1.898       .  S
O226        C237   1.272       .  A
O226       Cd231   2.037       .  S
Cd227       O229   2.119       .  S
Cd227       O230   1.945       .  S
Cd228       O232   1.969       .  S
Cd228       O241   2.097       .  S
Cd228       O230   1.951       .  S
O229        C239   1.285       .  A
O230       Cd231   1.972       .  S
Cd231       O233   2.063       .  S
O232        C239   1.261       .  A
C234        O238   1.259       .  A
C235        C253   1.445       .  S
C239        C318   1.463       .  S
C240        C294   1.476       .  S
C240        O241   1.282       .  A
N242        C246   1.349       .  A
N242        N256   1.419       .  S
C243        N249   1.459       .  S
C243        C244   1.403       .  A
C244        H247   1.082       .  S
C245        C246   1.376       .  A
C245        H248   1.083       .  S
N249        C253   1.350       .  A
N249        C250   1.358       .  A
C250        C251   1.395       .  A
C250        C271   1.496       .  S
C251        C252   1.366       .  A
C251        H254   1.083       .  S
C252        C253   1.373       .  A
C252        H255   1.080       .  S
N256        C260   1.356       .  A
N256        C257   1.370       .  A
C257        C258   1.381       .  A
C257        C285   1.484       .  S
C258        C259   1.363   1_556  A
C258        H261   1.083       .  S
C259        C260   1.373   1_554  A
C259        H262   1.069       .  S
C260        C392   1.474       .  S
N263        C267   1.350       .  A
N263        C264   1.365       .  A
N263        C304   1.438       .  S
C264        C673   1.384       .  A
C264        C288   1.491       .  S
C265        C672   1.384       .  A
C265        C266   1.372       .  A
C265        H268   1.083       .  S
C266        C675   1.370       .  A
C266        H269   1.075       .  S
C267        C674   1.370       .  A
C267        C781   1.468       .  S
O270        C286   1.275       .  A
O270       Zn276   2.072       .  S
C271        O287   1.277       .  A
C271        O284   1.285       .  A
O272        C285   1.280       .  A
O272       Cd279   2.097       .  S
O273        C291   1.282       .  A
O273       Cd282   2.114       .  S
O274        C288   1.278       .  A
O274       Cd278   2.085       .  S
O275        C694   1.276       .  A
O275       Cd278   2.058       .  S
Zn276       O287   1.995       .  S
Zn276       O289   2.060       .  S
Zn276       O281   1.942       .  S
O277        C696   1.282       .  A
O277       Cd282   2.136       .  S
Cd278       O280   2.054       .  S
Cd278       O689   1.958   1_545  S
Cd279       O691   2.130       .  S
Cd279       O292   2.131       .  S
Cd279       O281   2.002       .  S
O280        C290   1.275       .  A
O281       Cd686   1.958       .  S
O281       Cd282   2.029       .  S
Cd282       O284   2.139       .  S
O283        C290   1.282       .  A
O283       Cd687   2.130   1_545  S
C285        O289   1.281       .  A
C286        C770   1.477       .  S
C286        O683   1.276       .  A
C288        O685   1.282   1_545  A
C290        C297   1.484       .  S
C291        C369   1.494       .  S
C291        O292   1.288       .  A
N293        C297   1.359       .  A
N293        C294   1.353       .  A
N293        C301   1.450       .  S
C294        C295   1.380       .  A
C295        C296   1.378       .  A
C295        H298   1.082       .  S
C296        C297   1.380       .  A
C296        H299   1.083       .  S
N300        C301   1.374   1_554  A
C301        C302   1.389       .  A
C302        C303   1.368       .  A
C302        H305   1.083       .  S
C303        H306   1.082       .  S
N307        C311   1.360       .  A
N307        C308   1.370       .  A
N307        C355   1.453       .  S
C308        C309   1.386       .  A
C308        C336   1.484       .  S
C309        C310   1.366       .  A
C309        H312   1.082       .  S
C310        C311   1.369       .  A
C310        H313   1.078       .  S
N314        C318   1.337       .  A
N314        C315   1.342       .  A
N314        C399   1.416       .  S
C315        C316   1.381       .  A
C315        C339   1.469       .  S
C316        C317   1.381       .  A
C316        H319   1.082       .  S
C317        C318   1.390       .  A
C317        H320   1.083       .  S
O321        C337   1.273       .  A
O321       Zn327   2.013       .  S
C322        O338   1.280       .  A
C322        O335   1.267       .  A
O323        C336   1.270       .  A
O323      Cd1146   2.090   1_455  S
O324        C342   1.268       .  A
O325        C339   1.282       .  A
O325       Cd329   2.105       .  S
O326       C1153   1.284       .  A
O326       Cd329   2.119       .  S
Zn327       O338   2.062       .  S
Zn327      O1148   1.894   1_455  S
O328        C339   1.269       .  A
O328       Cd333   2.043       .  S
Cd329       O331   2.141       .  S
Cd329       O332   2.022       .  S
Cd330      O1139   2.091       .  S
Cd330       O334   2.069       .  S
Cd330       O343   2.081       .  S
O332      Zn1143   1.894       .  S
O332       Cd333   1.970       .  S
Cd333      O1151   2.053       .  S
O334        C341   1.275       .  A
O335      Cd1149   2.053   1_455  S
C336        O340   1.279       .  A
C337        C348   1.496       .  S
C337       O1142   1.284   1_455  A
C342        C403   1.447       .  S
C342        O343   1.276       .  A
N344        C348   1.367       .  A
N344        C345   1.362       .  A
N344        C352   1.469       .  S
C345        C346   1.386   1_455  A
C345        C393   1.504       .  S
C346        C347   1.377       .  A
C346        H349   1.076       .  S
C347        C348   1.376   1_655  A
C347        H350   1.083       .  S
N351        C355   1.373       .  A
N351        C352   1.381       .  A
N351        N358   1.427       .  S
C352        C353   1.383       .  A
C353        C354   1.370       .  A
C353        H356   1.080       .  S
C354        C355   1.373       .  A
C354        H357   1.081       .  S
N358        C362   1.378       .  A
N358        C359   1.366       .  A
C359        C768   1.377       .  A
C359        C390   1.452       .  S
C360        C767   1.377       .  A
C360        C361   1.350       .  A
C360        H363   1.083       .  S
C361        C770   1.378       .  A
C361        H364   1.084       .  S
C362        C769   1.378       .  A
C362        C694   1.477       .  S
N365        C369   1.369       .  A
N365        C366   1.362       .  A
N365        N395   1.420       .  S
C366        C367   1.376       .  A
C366        C387   1.481       .  S
C367        C368   1.363       .  A
C367        H370   1.079       .  S
C368        C369   1.376       .  A
C368        H371   1.077       .  S
O372        C388   1.285       .  A
C373        C675   1.468       .  S
C373        O389   1.276       .  A
C373        O794   1.278       .  A
O374        C387   1.281       .  A
O374      Cd1197   2.095       .  S
O375        C393   1.285       .  A
O375       Cd996   2.108   1_455  S
O376        C798   1.263       .  A
O376       Cd380   2.056       .  S
O377       C1204   1.271   1_455  A
O377       Cd380   2.037       .  S
Zn378       O391   2.070       .  S
Zn378       O383   1.939       .  S
O379        C390   1.271       .  A
O379      Cd1200   2.050   1_455  S
Cd380       O995   1.970   1_455  S
Cd381      O1190   2.095   1_455  S
Cd381       O385   2.100       .  S
Cd381       O802   2.127       .  S
Cd381      O1199   2.002   1_455  S
O382        C392   1.279   1_554  A
O383       Cd992   1.969   1_556  S
O383      Cd1197   2.002       .  S
O383       Cd588   1.987       .  S
Cd384       O987   2.108       .  S
Cd384      O1195   2.050       .  S
Cd384       O386   2.080       .  S
Cd384       O587   1.987   1_545  S
O385        C392   1.281       .  A
O386        C781   1.278       .  A
C387        O391   1.286       .  A
C388        C406   1.498       .  S
C388       O1193   1.271       .  A
C390        O784   1.263       .  A
C393        O394   1.279   1_545  A
O394       Cd789   2.127       .  S
N395        C399   1.344       .  A
N395        C396   1.370       .  A
C396        N402   1.447       .  S
C396        C397   1.395       .  A
C397        C398   1.371       .  A
C397        H400   1.082       .  S
C398        C399   1.372       .  A
C398        H401   1.083       .  S
N402        C406   1.352       .  A
N402        C403   1.354       .  A
C403        C404   1.371       .  A
C404        C405   1.371       .  A
C404        H407   1.083       .  S
C405        C406   1.390       .  A
C405        H408   1.083       .  S
N409        C413   1.343       .  A
N409        C410   1.341       .  A
N409        C450   1.419       .  S
C410        C411   1.383       .  A
C410        C438   1.468       .  S
C411        C412   1.384       .  A
C411        H414   1.079       .  S
C412        C413   1.373       .  A
C412        H415   1.072       .  S
C413        C526   1.473       .  S
N416        C420   1.382       .  A
N416        C417   1.375       .  A
N416        N708   1.438       .  S
C417        C418   1.372       .  A
C417        C441   1.464       .  S
C418        C419   1.343       .  A
C418        H421   1.084       .  S
C419        C420   1.385       .  A
C419        H422   1.083       .  S
C420        C545   1.487       .  S
O423        C439   1.270       .  A
O423       Zn429   1.946       .  S
C424        C515   1.461       .  S
C424        O440   1.253       .  A
C424        O437   1.267       .  A
O425        C438   1.271       .  A
O425       Cd432   2.069       .  S
O426        C444   1.281       .  A
O426       Cd435   2.064       .  S
O427        C441   1.281       .  A
O427       Cd431   2.123       .  S
O428        C439   1.275       .  A
O428       Cd431   2.032       .  S
Zn429       O440   1.944       .  S
Zn429       O442   1.961       .  S
Zn429       O434   1.898       .  S
O430        C441   1.272       .  A
O430       Cd435   2.037       .  S
Cd431       O433   2.119       .  S
Cd431       O434   1.945       .  S
Cd432       O436   1.969       .  S
Cd432       O445   2.098       .  S
Cd432       O434   1.951       .  S
O433        C443   1.285       .  A
O434       Cd435   1.972       .  S
Cd435       O437   2.063       .  S
O436        C443   1.261       .  A
C438        O442   1.259       .  A
C439        C457   1.445       .  S
C443        C522   1.463       .  S
C444        C498   1.476       .  S
C444        O445   1.282       .  A
N446        C450   1.349       .  A
N446        C651   1.363       .  A
N446        N460   1.419       .  S
C447        N650   1.363       .  A
C447        N453   1.459   1_556  S
C447        C448   1.403       .  A
C448        C653   1.373       .  A
C448        H451   1.082       .  S
C449        C652   1.373       .  A
C449        C450   1.376       .  A
C449        H452   1.083       .  S
N453        C457   1.350       .  A
N453        C454   1.358       .  A
C454        C455   1.395       .  A
C454        C475   1.496       .  S
C455        C456   1.366       .  A
C455        H458   1.083       .  S
C456        C457   1.373       .  A
C456        H459   1.080       .  S
N460        C464   1.356       .  A
N460        C461   1.369       .  A
C461        C462   1.381       .  A
C461        C489   1.484       .  S
C462        C463   1.363       .  A
C462        H465   1.083       .  S
C463        C464   1.373       .  A
C463        H466   1.068       .  S
C464        C596   1.474       .  S
N467        C471   1.350       .  A
N467        C468   1.365       .  A
N467        C508   1.438       .  S
C468        C492   1.491       .  S
C469        C470   1.372       .  A
C469        H472   1.083       .  S
C470        H473   1.075       .  S
O474        C490   1.275   1_565  A
O474       Zn480   2.072       .  S
C475        O491   1.277       .  A
C475        O488   1.285       .  A
O476        C489   1.280       .  A
O476       Cd483   2.097       .  S
O477        C495   1.282       .  A
O477       Cd486   2.114       .  S
O478        C492   1.278       .  A
O478       Cd482   2.085       .  S
O479       Cd482   2.058       .  S
Zn480       O491   1.995       .  S
Zn480       O493   2.060       .  S
Zn480       O485   1.942       .  S
O481       Cd486   2.136       .  S
Cd482       O484   2.054       .  S
Cd483       O496   2.131       .  S
Cd483       O485   2.002       .  S
O484        C494   1.275       .  A
O485       Cd486   2.029       .  S
Cd486       O488   2.139       .  S
O487        C494   1.282       .  A
C489        O493   1.281       .  A
C494        C501   1.484       .  S
C495        C573   1.494       .  S
C495        O496   1.288       .  A
N497        C501   1.359       .  A
N497        C498   1.353       .  A
N497        C505   1.450       .  S
C498        C499   1.380       .  A
C499        C500   1.378       .  A
C499        H502   1.082       .  S
C500        C501   1.380       .  A
C500        H503   1.083       .  S
N504        C712   1.368       .  A
N504        C505   1.374       .  A
N504        N620   1.438       .  S
C505        C506   1.389       .  A
C506        C507   1.368       .  A
C506        H509   1.083       .  S
C507        C712   1.376       .  A
C507        H510   1.082       .  S
C508        N708   1.368       .  A
C508        C711   1.376   1_554  A
N511        C515   1.360       .  A
N511        C512   1.370       .  A
N511        C559   1.453       .  S
C512        C513   1.386       .  A
C512        C540   1.484       .  S
C513        C514   1.366       .  A
C513        H516   1.082   1_554  S
C514        C515   1.369       .  A
C514        H517   1.078       .  S
N518        C522   1.337       .  A
N518        C519   1.342       .  A
N518        C603   1.416       .  S
C519        C520   1.381       .  A
C519        C543   1.469       .  S
C520        C521   1.381       .  A
C520        H523   1.082       .  S
C521        C522   1.390       .  A
C521        H524   1.083       .  S
O525        C541   1.273       .  A
O525       Zn531   2.013       .  S
C526        O542   1.280       .  A
C526        O539   1.267       .  A
O527        C540   1.270       .  A
O527      Cd1350   2.091   1_455  S
O528        C546   1.268       .  A
O528       Cd741   1.991   1_554  S
O529        C543   1.282       .  A
O529       Cd533   2.105       .  S
O530       C1357   1.284       .  A
O530       Cd533   2.119       .  S
Zn531       O542   2.062       .  S
Zn531       O748   2.027       .  S
Zn531      O1352   1.894   1_455  S
O532        C543   1.269       .  A
O532       Cd537   2.043       .  S
Cd533       O535   2.141       .  S
Cd533       O536   2.022       .  S
Cd534      O1343   2.091       .  S
Cd534       O538   2.069       .  S
Cd534       O547   2.080       .  S
Cd534       O740   2.006   1_554  S
O535        C749   1.278       .  A
O536      Zn1347   1.894       .  S
O536       Cd738   2.006       .  S
O536       Cd537   1.970       .  S
Cd537       O732   1.991       .  S
Cd537      O1355   2.053       .  S
O538        C545   1.275       .  A
O539      Cd1353   2.053   1_455  S
C540        O544   1.279   1_554  A
C541        C552   1.496       .  S
C541       O1346   1.284   1_455  A
O544       Zn735   2.027       .  S
C545        O739   1.278   1_554  A
C546        C607   1.447       .  S
C546        O547   1.276       .  A
N548        C552   1.367       .  A
N548        C549   1.363       .  A
N548        C556   1.469       .  S
C549        C550   1.386   1_455  A
C549        C597   1.504       .  S
C550        C551   1.377       .  A
C550        H553   1.076       .  S
C551        C552   1.376   1_655  A
C551        H554   1.083       .  S
N555        C559   1.373       .  A
N555        C556   1.381       .  A
N555        N562   1.427       .  S
C556        C557   1.383       .  A
C557        C558   1.370       .  A
C557        H560   1.080       .  S
C558        C559   1.373       .  A
C558        H561   1.081       .  S
N562        C566   1.378       .  A
N562        C563   1.366       .  A
C563        C594   1.452       .  S
C564        C565   1.350       .  A
C564        H567   1.083       .  S
C565        H568   1.084       .  S
N569        C573   1.369       .  A
N569        C570   1.362       .  A
N569        N599   1.421       .  S
C570        C571   1.376       .  A
C570        C591   1.481       .  S
C571        C572   1.363       .  A
C571        H574   1.079       .  S
C572        C573   1.376       .  A
C572        H575   1.077       .  S
O576        C592   1.285       .  A
O576       Zn786   2.102   1_554  S
C577        O593   1.276   1_545  A
O578        C591   1.281       .  A
O578      Cd1401   2.095       .  S
O579        C597   1.285       .  A
O579      Cd1608   2.108   1_455  S
O580       Cd584   2.056   1_545  S
O581       C1408   1.272   1_455  A
O581       Cd584   2.037       .  S
Zn582       O780   2.103       .  S
Zn582       O797   2.014       .  S
Zn582       O595   2.070       .  S
Zn582       O587   1.939       .  S
O583        C594   1.271       .  A
O583      Cd1404   2.050   1_454  S
Cd584       O790   2.073       .  S
Cd584      O1607   1.969   1_454  S
Cd585      O1394   2.095   1_455  S
Cd585       O589   2.100       .  S
Cd585      O1403   2.002   1_455  S
O586        C596   1.279       .  A
O586       Cd788   2.073       .  S
O587      Cd1604   1.970       .  S
O587      Cd1401   2.002       .  S
Cd588      O1599   2.108       .  S
Cd588      O1399   2.050   1_556  S
Cd588       O590   2.080   1_556  S
O589        C596   1.281       .  A
C591        O595   1.286       .  A
C592        C610   1.498       .  S
C592       O1397   1.272       .  A
O593       Zn786   2.014   1_554  S
C597        O598   1.279       .  A
N599        C603   1.344       .  A
N599        C600   1.370       .  A
C600        N606   1.447       .  S
C600        C601   1.395       .  A
C601        C602   1.371       .  A
C601        H604   1.082       .  S
C602        C603   1.372       .  A
C602        H605   1.083       .  S
N606        C610   1.352       .  A
N606        C607   1.353       .  A
C607        C608   1.371       .  A
C608        C609   1.371       .  A
C608        H611   1.083       .  S
C609        C610   1.390       .  A
C609        H612   1.083       .  S
N613        C617   1.343       .  A
N613        C614   1.341       .  A
N613        C654   1.419       .  S
C614        C615   1.383       .  A
C614        C642   1.468       .  S
C615        C616   1.384       .  A
C615        H618   1.079       .  S
C616        C617   1.373       .  A
C616        H619   1.072       .  S
C617        C730   1.473       .  S
N620        C624   1.382       .  A
N620        C621   1.375       .  A
C621        C622   1.372       .  A
C621        C645   1.464       .  S
C622        C623   1.343       .  A
C622        H625   1.084       .  S
C623        C624   1.385       .  A
C623        H626   1.083       .  S
C624        C749   1.487       .  S
O627        C643   1.270       .  A
O627       Zn633   1.946       .  S
C628        C719   1.461       .  S
C628        O644   1.253       .  A
C628        O641   1.267       .  A
O629        C642   1.271       .  A
O629       Cd636   2.069       .  S
O630        C648   1.281       .  A
O630       Cd639   2.064       .  S
O631        C645   1.281       .  A
O631       Cd635   2.123       .  S
O632        C643   1.275       .  A
O632       Cd635   2.032       .  S
Zn633       O644   1.944       .  S
Zn633       O646   1.961       .  S
Zn633       O638   1.898       .  S
O634        C645   1.272       .  A
O634       Cd639   2.037       .  S
Cd635       O637   2.119       .  S
Cd635       O638   1.945       .  S
Cd636       O640   1.969       .  S
Cd636       O649   2.097       .  S
Cd636       O638   1.951       .  S
O637        C647   1.285       .  A
O638       Cd639   1.972       .  S
Cd639       O641   2.063       .  S
O640        C647   1.261       .  A
C642        O646   1.259       .  A
C643        C661   1.445       .  S
C647        C726   1.463       .  S
C648        C702   1.476       .  S
C648        O649   1.282       .  A
N650        C654   1.349       .  A
N650        N664   1.419       .  S
C651        N657   1.459       .  S
C651        C652   1.403       .  A
C652        H655   1.082       .  S
C653        C654   1.376       .  A
C653        H656   1.083       .  S
N657        C661   1.350       .  A
N657        C658   1.358       .  A
C658        C659   1.395       .  A
C658        C679   1.496       .  S
C659        C660   1.366       .  A
C659        H662   1.083       .  S
C660        C661   1.373       .  A
C660        H663   1.080       .  S
N664        C668   1.356       .  A
N664        C665   1.370       .  A
C665        C666   1.381       .  A
C665        C693   1.484       .  S
C666        C667   1.363   1_556  A
C666        H669   1.083       .  S
C667        C668   1.373   1_554  A
C667        H670   1.068       .  S
C668        C800   1.474       .  S
N671        C675   1.350       .  A
N671        C672   1.365       .  A
N671        C712   1.438       .  S
C672        C696   1.491       .  S
C673        C674   1.372       .  A
C673        H676   1.083       .  S
C674        H677   1.075       .  S
O678        C694   1.275   1_565  A
O678       Zn684   2.072       .  S
C679        O695   1.277       .  A
C679        O692   1.285       .  A
O680        C693   1.280       .  A
O680       Cd687   2.097       .  S
O681        C699   1.282       .  A
O681       Cd690   2.114       .  S
O682        C696   1.278       .  A
O682       Cd686   2.085       .  S
O683       Cd686   2.058       .  S
Zn684       O695   1.995       .  S
Zn684       O697   2.060       .  S
Zn684       O689   1.942       .  S
O685       Cd690   2.136       .  S
Cd686       O688   2.054       .  S
Cd687       O700   2.131       .  S
Cd687       O689   2.002       .  S
O688        C698   1.275       .  A
O689       Cd690   2.029       .  S
Cd690       O692   2.139       .  S
O691        C698   1.282       .  A
C693        O697   1.281       .  A
C698        C705   1.484       .  S
C699        C777   1.494       .  S
C699        O700   1.288       .  A
N701        C705   1.359       .  A
N701        C702   1.353       .  A
N701        C709   1.450       .  S
C702        C703   1.380       .  A
C703        C704   1.378       .  A
C703        H706   1.082       .  S
C704        C705   1.380       .  A
C704        H707   1.083       .  S
N708        C709   1.374   1_554  A
C709        C710   1.389       .  A
C710        C711   1.368       .  A
C710        H713   1.083       .  S
C711        H714   1.082       .  S
N715        C719   1.360       .  A
N715        C716   1.370       .  A
N715        C763   1.453       .  S
C716        C717   1.386       .  A
C716        C744   1.484       .  S
C717        C718   1.366       .  A
C717        H720   1.082       .  S
C718        C719   1.369       .  A
C718        H721   1.078       .  S
N722        C726   1.337       .  A
N722        C723   1.342       .  A
N722        C807   1.416       .  S
C723        C724   1.381       .  A
C723        C747   1.469       .  S
C724        C725   1.381       .  A
C724        H727   1.082       .  S
C725        C726   1.390       .  A
C725        H728   1.083       .  S
O729        C745   1.273       .  A
O729       Zn735   2.013       .  S
C730        O746   1.280       .  A
C730        O743   1.267       .  A
O731        C744   1.270       .  A
O731      Cd1554   2.090   1_455  S
O732        C750   1.268       .  A
O733        C747   1.282       .  A
O733       Cd737   2.105       .  S
O734       C1561   1.284       .  A
O734       Cd737   2.119       .  S
Zn735       O746   2.062       .  S
Zn735      O1556   1.894   1_455  S
O736        C747   1.269       .  A
O736       Cd741   2.043       .  S
Cd737       O739   2.141       .  S
Cd737       O740   2.022       .  S
Cd738      O1547   2.090       .  S
Cd738       O742   2.069       .  S
Cd738       O751   2.081       .  S
O740      Zn1551   1.894       .  S
O740       Cd741   1.970       .  S
Cd741      O1559   2.053       .  S
O742        C749   1.275       .  A
O743      Cd1557   2.053   1_455  S
C744        O748   1.279       .  A
C745        C756   1.496       .  S
C745       O1550   1.284   1_455  A
C750        C811   1.447       .  S
C750        O751   1.276       .  A
N752        C756   1.367       .  A
N752        C753   1.362       .  A
N752        C760   1.469       .  S
C753        C754   1.386   1_455  A
C753        C801   1.504       .  S
C754        C755   1.377       .  A
C754        H757   1.076       .  S
C755        C756   1.376   1_655  A
C755        H758   1.083       .  S
N759        C763   1.373       .  A
N759        C760   1.381       .  A
N759        N766   1.427       .  S
C760        C761   1.383       .  A
C761        C762   1.370       .  A
C761        H764   1.080       .  S
C762        C763   1.373       .  A
C762        H765   1.081       .  S
N766        C770   1.378       .  A
N766        C767   1.366       .  A
C767        C798   1.452       .  S
C768        C769   1.350       .  A
C768        H771   1.083       .  S
C769        H772   1.084       .  S
N773        C777   1.369       .  A
N773        C774   1.362       .  A
N773        N803   1.420       .  S
C774        C775   1.376       .  A
C774        C795   1.481       .  S
C775        C776   1.363       .  A
C775        H778   1.079       .  S
C776        C777   1.376       .  A
C776        H779   1.077       .  S
O780        C796   1.285       .  A
C781        O797   1.276   1_545  A
O782        C795   1.281       .  A
O782      Cd1605   2.095       .  S
O783        C801   1.285       .  A
O783      Cd1404   2.108   1_455  S
O784       Cd788   2.056   1_545  S
O785       C1612   1.271   1_455  A
O785       Cd788   2.037       .  S
Zn786       O799   2.070       .  S
Zn786       O791   1.939       .  S
O787        C798   1.271       .  A
O787      Cd1608   2.050   1_455  S
Cd788      O1403   1.970   1_455  S
Cd789      O1598   2.095   1_455  S
Cd789       O793   2.100       .  S
Cd789      O1607   2.002   1_455  S
O790        C800   1.279   1_554  A
O791      Cd1400   1.969   1_556  S
O791      Cd1605   2.002       .  S
Cd792      O1395   2.108       .  S
Cd792      O1603   2.050       .  S
Cd792       O794   2.080       .  S
O793        C800   1.281       .  A
C795        O799   1.286       .  A
C796        C814   1.498       .  S
C796       O1601   1.271       .  A
C801        O802   1.279       .  A
N803        C807   1.344       .  A
N803        C804   1.370       .  A
C804        N810   1.447       .  S
C804        C805   1.395       .  A
C805        C806   1.371       .  A
C805        H808   1.082       .  S
C806        C807   1.372       .  A
C806        H809   1.083       .  S
N810        C814   1.352       .  A
N810        C811   1.354       .  A
C811        C812   1.371       .  A
C812        C813   1.371       .  A
C812        H815   1.083       .  S
C813        C814   1.389       .  A
C813        H816   1.083       .  S
N817        C821   1.343       .  A
N817        C818   1.341       .  A
N817        C858   1.419       .  S
C818        C819   1.383       .  A
C818        C846   1.468       .  S
C819        C820   1.384       .  A
C819        H822   1.079       .  S
C820        C821   1.373       .  A
C820        H823   1.072       .  S
C821        C934   1.473       .  S
N824        C828   1.382       .  A
N824        C825   1.375       .  A
N824       N1116   1.438       .  S
C825        C826   1.372       .  A
C825        C849   1.464       .  S
C826        C827   1.343       .  A
C826        H829   1.084       .  S
C827        C828   1.385       .  A
C827        H830   1.083       .  S
C828        C953   1.487       .  S
O831        C847   1.270       .  A
O831       Zn837   1.946       .  S
C832        C923   1.461       .  S
C832        O848   1.253       .  A
C832        O845   1.267       .  A
O833        C846   1.271       .  A
O833       Cd840   2.069       .  S
O834        C852   1.281       .  A
O834       Cd843   2.064       .  S
O835        C849   1.281       .  A
O835       Cd839   2.123       .  S
O836        C847   1.275       .  A
O836       Cd839   2.032       .  S
Zn837       O848   1.944       .  S
Zn837       O850   1.961       .  S
Zn837       O842   1.898       .  S
O838        C849   1.272       .  A
O838       Cd843   2.037       .  S
Cd839       O841   2.119       .  S
Cd839       O842   1.945       .  S
Cd840       O844   1.969       .  S
Cd840       O853   2.098       .  S
Cd840       O842   1.951       .  S
O841        C851   1.285       .  A
O842       Cd843   1.972       .  S
Cd843       O845   2.063       .  S
O844        C851   1.261       .  A
C846        O850   1.259       .  A
C847        C865   1.445       .  S
C851        C930   1.463       .  S
C852        C906   1.476       .  S
C852        O853   1.282       .  A
N854        C858   1.349       .  A
N854       C1059   1.363       .  A
N854        N868   1.419       .  S
C855       N1058   1.363       .  A
C855        N861   1.459   1_556  S
C855        C856   1.403       .  A
C856       C1061   1.373       .  A
C856        H859   1.082       .  S
C857       C1060   1.373       .  A
C857        C858   1.376       .  A
C857        H860   1.083       .  S
N861        C865   1.350       .  A
N861        C862   1.358       .  A
C862        C863   1.395       .  A
C862        C883   1.496       .  S
C863        C864   1.366       .  A
C863        H866   1.083       .  S
C864        C865   1.373       .  A
C864        H867   1.080       .  S
N868        C872   1.356       .  A
N868        C869   1.369       .  A
C869        C870   1.381       .  A
C869        C897   1.484       .  S
C870        C871   1.363       .  A
C870        H873   1.083       .  S
C871        C872   1.373       .  A
C871        H874   1.068       .  S
C872       C1004   1.474       .  S
N875        C879   1.350       .  A
N875        C876   1.365       .  A
N875        C916   1.438       .  S
C876       C1285   1.384       .  A
C876        C900   1.491       .  S
C877       C1284   1.384       .  A
C877        C878   1.372       .  A
C877        H880   1.083       .  S
C878       C1287   1.370       .  A
C878        H881   1.075       .  S
C879       C1286   1.370       .  A
C879       C1393   1.468       .  S
O882        C898   1.275       .  A
O882       Zn888   2.072       .  S
C883        O899   1.277       .  A
C883        O896   1.285       .  A
O884        C897   1.280       .  A
O884       Cd891   2.097       .  S
O885        C903   1.282       .  A
O885       Cd894   2.114       .  S
O886        C900   1.278       .  A
O886       Cd890   2.085       .  S
O887       C1306   1.276       .  A
O887       Cd890   2.058       .  S
Zn888       O899   1.995       .  S
Zn888       O901   2.060       .  S
Zn888       O893   1.942       .  S
O889       C1308   1.282       .  A
O889       Cd894   2.136       .  S
Cd890       O892   2.054       .  S
Cd890      O1301   1.958   1_545  S
Cd891      O1303   2.130       .  S
Cd891       O904   2.131       .  S
Cd891       O893   2.002       .  S
O892        C902   1.275       .  A
O893      Cd1298   1.958       .  S
O893       Cd894   2.029       .  S
Cd894       O896   2.139       .  S
O895        C902   1.282       .  A
O895      Cd1299   2.130   1_545  S
C897        O901   1.281       .  A
C898       C1382   1.477       .  S
C898       O1295   1.276       .  A
C900       O1297   1.282   1_545  A
C902        C909   1.484       .  S
C903        C981   1.494       .  S
C903        O904   1.288       .  A
N905        C909   1.359       .  A
N905        C906   1.353       .  A
N905        C913   1.450       .  S
C906        C907   1.380       .  A
C907        C908   1.378       .  A
C907        H910   1.082       .  S
C908        C909   1.380       .  A
C908        H911   1.083       .  S
N912       C1120   1.368       .  A
N912        C913   1.374       .  A
N912       N1028   1.438       .  S
C913        C914   1.389       .  A
C914        C915   1.368       .  A
C914        H917   1.083       .  S
C915       C1120   1.376       .  A
C915        H918   1.082       .  S
C916       N1116   1.368       .  A
C916       C1119   1.376   1_554  A
N919        C923   1.360       .  A
N919        C920   1.370       .  A
N919        C967   1.453       .  S
C920        C921   1.386       .  A
C920        C948   1.484       .  S
C921        C922   1.366       .  A
C921        H924   1.082   1_554  S
C922        C923   1.369       .  A
C922        H925   1.078       .  S
N926        C930   1.337       .  A
N926        C927   1.342       .  A
N926       C1011   1.416       .  S
C927        C928   1.381       .  A
C927        C951   1.469       .  S
C928        C929   1.381       .  A
C928        H931   1.082       .  S
C929        C930   1.390       .  A
C929        H932   1.083       .  S
O933        C949   1.273       .  A
O933       Zn939   2.013       .  S
C934        O950   1.280       .  A
C934        O947   1.267       .  A
O935        C948   1.270       .  A
O936        C954   1.268       .  A
O936      Cd1149   1.991   1_554  S
O937        C951   1.282       .  A
O937       Cd941   2.105       .  S
O938       Cd941   2.119       .  S
Zn939       O950   2.062       .  S
Zn939      O1156   2.027       .  S
O940        C951   1.269       .  A
O940       Cd945   2.043       .  S
Cd941       O943   2.141       .  S
Cd941       O944   2.022       .  S
Cd942       O946   2.069       .  S
Cd942       O955   2.080       .  S
Cd942      O1148   2.006   1_554  S
O943       C1157   1.278       .  A
O944      Cd1146   2.006       .  S
O944       Cd945   1.970       .  S
Cd945      O1140   1.991       .  S
O946        C953   1.275       .  A
C948        O952   1.279   1_554  A
C949        C960   1.496       .  S
O952      Zn1143   2.026       .  S
C953       O1147   1.278   1_554  A
C954       C1015   1.447       .  S
C954        O955   1.276       .  A
N956        C960   1.367       .  A
N956        C957   1.363       .  A
N956        C964   1.469       .  S
C957        C958   1.386       .  A
C957       C1005   1.504       .  S
C958        C959   1.377       .  A
C958        H961   1.076       .  S
C959        C960   1.376       .  A
C959        H962   1.083       .  S
N963        C967   1.373       .  A
N963        C964   1.381       .  A
N963        N970   1.427       .  S
C964        C965   1.383       .  A
C965        C966   1.370       .  A
C965        H968   1.080       .  S
C966        C967   1.373       .  A
C966        H969   1.081       .  S
N970        C974   1.378       .  A
N970        C971   1.366       .  A
C971       C1380   1.377       .  A
C971       C1002   1.452       .  S
C972       C1379   1.377       .  A
C972        C973   1.350       .  A
C972        H975   1.083       .  S
C973       C1382   1.378       .  A
C973        H976   1.084       .  S
C974       C1381   1.378       .  A
C974       C1306   1.477       .  S
N977        C981   1.369       .  A
N977        C978   1.362       .  A
N977       N1007   1.421       .  S
C978        C979   1.376       .  A
C978        C999   1.481       .  S
C979        C980   1.363       .  A
C979        H982   1.079       .  S
C980        C981   1.376       .  A
C980        H983   1.077       .  S
O984       C1000   1.285       .  A
O984      Zn1194   2.102   1_554  S
C985       C1287   1.468       .  S
C985       O1001   1.276       .  A
C985       O1406   1.278       .  A
O986        C999   1.281       .  A
O987       C1005   1.285       .  A
O988       C1410   1.263       .  A
O988       Cd992   2.056       .  S
O989       Cd992   2.037       .  S
Zn990      O1188   2.103       .  S
Zn990      O1205   2.014       .  S
Zn990      O1003   2.070       .  S
Zn990       O995   1.939       .  S
O991       C1002   1.271       .  A
Cd992      O1198   2.073       .  S
Cd993       O997   2.100       .  S
Cd993      O1414   2.127       .  S
O994       C1004   1.279       .  A
O994      Cd1196   2.073       .  S
O995      Cd1608   1.987       .  S
Cd996       O998   2.080   1_556  S
Cd996      O1607   1.987   1_545  S
O997       C1004   1.281       .  A
O998       C1393   1.278       .  A
C999       O1003   1.286       .  A
C1000      C1018   1.498       .  S
O1001     Zn1194   2.014   1_554  S
C1002      O1396   1.263       .  A
C1005      O1006   1.278   1_545  A
O1006     Cd1401   2.127       .  S
N1007      C1011   1.344       .  A
N1007      C1008   1.370       .  A
C1008      N1014   1.447       .  S
C1008      C1009   1.395       .  A
C1009      C1010   1.371       .  A
C1009      H1012   1.082       .  S
C1010      C1011   1.372       .  A
C1010      H1013   1.083       .  S
N1014      C1018   1.352       .  A
N1014      C1015   1.353       .  A
C1015      C1016   1.371   1_655  A
C1016      C1017   1.371       .  A
C1016      H1019   1.083       .  S
C1017      C1018   1.390   1_455  A
C1017      H1020   1.083       .  S
N1021      C1025   1.343       .  A
N1021      C1022   1.341       .  A
N1021      C1062   1.419       .  S
C1022      C1023   1.383       .  A
C1022      C1050   1.468       .  S
C1023      C1024   1.384       .  A
C1023      H1026   1.079       .  S
C1024      C1025   1.373       .  A
C1024      H1027   1.072       .  S
C1025      C1138   1.473       .  S
N1028      C1032   1.382       .  A
N1028      C1029   1.375       .  A
C1029      C1030   1.372       .  A
C1029      C1053   1.464       .  S
C1030      C1031   1.343       .  A
C1030      H1033   1.084       .  S
C1031      C1032   1.385       .  A
C1031      H1034   1.083       .  S
C1032      C1157   1.487       .  S
O1035      C1051   1.270       .  A
O1035     Zn1041   1.946       .  S
C1036      C1127   1.461       .  S
C1036      O1052   1.253       .  A
C1036      O1049   1.267       .  A
O1037      C1050   1.271       .  A
O1037     Cd1044   2.069       .  S
O1038      C1056   1.281       .  A
O1038     Cd1047   2.064       .  S
O1039      C1053   1.281       .  A
O1039     Cd1043   2.123       .  S
O1040      C1051   1.275       .  A
O1040     Cd1043   2.032       .  S
Zn1041     O1052   1.944       .  S
Zn1041     O1054   1.961       .  S
Zn1041     O1046   1.898       .  S
O1042      C1053   1.272       .  A
O1042     Cd1047   2.037       .  S
Cd1043     O1045   2.119       .  S
Cd1043     O1046   1.945       .  S
Cd1044     O1048   1.969       .  S
Cd1044     O1057   2.097       .  S
Cd1044     O1046   1.951       .  S
O1045      C1055   1.285       .  A
O1046     Cd1047   1.972       .  S
Cd1047     O1049   2.063       .  S
O1048      C1055   1.261       .  A
C1050      O1054   1.259       .  A
C1051      C1069   1.445       .  S
C1055      C1134   1.463       .  S
C1056      C1110   1.476       .  S
C1056      O1057   1.282       .  A
N1058      C1062   1.349       .  A
N1058      N1072   1.419       .  S
C1059      N1065   1.459       .  S
C1059      C1060   1.403       .  A
C1060      H1063   1.082       .  S
C1061      C1062   1.376       .  A
C1061      H1064   1.083       .  S
N1065      C1069   1.350       .  A
N1065      C1066   1.358       .  A
C1066      C1067   1.395       .  A
C1066      C1087   1.496       .  S
C1067      C1068   1.366       .  A
C1067      H1070   1.083       .  S
C1068      C1069   1.373       .  A
C1068      H1071   1.080       .  S
N1072      C1076   1.356       .  A
N1072      C1073   1.370       .  A
C1073      C1074   1.381       .  A
C1073      C1101   1.484       .  S
C1074      C1075   1.363   1_556  A
C1074      H1077   1.083       .  S
C1075      C1076   1.373   1_554  A
C1075      H1078   1.068       .  S
C1076      C1208   1.474       .  S
N1079      C1083   1.350       .  A
N1079      C1080   1.365       .  A
N1079      C1120   1.438       .  S
C1080      C1489   1.384       .  A
C1080      C1104   1.491       .  S
C1081      C1488   1.384       .  A
C1081      C1082   1.372       .  A
C1081      H1084   1.083       .  S
C1082      C1491   1.370       .  A
C1082      H1085   1.075       .  S
C1083      C1490   1.370       .  A
C1083      C1597   1.468       .  S
O1086      C1102   1.275       .  A
O1086     Zn1092   2.072       .  S
C1087      O1103   1.277       .  A
C1087      O1100   1.285       .  A
O1088      C1101   1.280       .  A
O1088     Cd1095   2.097       .  S
O1089      C1107   1.282       .  A
O1089     Cd1098   2.114       .  S
O1090      C1104   1.278       .  A
O1090     Cd1094   2.085       .  S
O1091      C1510   1.276       .  A
O1091     Cd1094   2.058       .  S
Zn1092     O1103   1.995       .  S
Zn1092     O1105   2.060       .  S
Zn1092     O1097   1.942       .  S
O1093      C1512   1.282       .  A
O1093     Cd1098   2.136       .  S
Cd1094     O1096   2.054       .  S
Cd1094     O1505   1.958   1_545  S
Cd1095     O1507   2.130       .  S
Cd1095     O1108   2.131       .  S
Cd1095     O1097   2.002       .  S
O1096      C1106   1.275       .  A
O1097     Cd1502   1.958       .  S
O1097     Cd1098   2.029       .  S
Cd1098     O1100   2.139       .  S
O1099      C1106   1.282       .  A
O1099     Cd1503   2.130   1_545  S
C1101      O1105   1.281       .  A
C1102      C1586   1.477       .  S
C1102      O1499   1.276       .  A
C1104      O1501   1.282   1_545  A
C1106      C1113   1.484       .  S
C1107      C1185   1.494       .  S
C1107      O1108   1.288       .  A
N1109      C1113   1.359       .  A
N1109      C1110   1.353       .  A
N1109      C1117   1.450       .  S
C1110      C1111   1.380       .  A
C1111      C1112   1.378       .  A
C1111      H1114   1.082       .  S
C1112      C1113   1.380       .  A
C1112      H1115   1.083       .  S
N1116      C1117   1.374   1_554  A
C1117      C1118   1.389       .  A
C1118      C1119   1.368       .  A
C1118      H1121   1.083       .  S
C1119      H1122   1.082       .  S
N1123      C1127   1.360       .  A
N1123      C1124   1.370       .  A
N1123      C1171   1.453       .  S
C1124      C1125   1.386       .  A
C1124      C1152   1.484       .  S
C1125      C1126   1.366       .  A
C1125      H1128   1.082       .  S
C1126      C1127   1.369       .  A
C1126      H1129   1.078       .  S
N1130      C1134   1.337       .  A
N1130      C1131   1.342       .  A
N1130      C1215   1.417       .  S
C1131      C1132   1.381       .  A
C1131      C1155   1.469       .  S
C1132      C1133   1.381       .  A
C1132      H1135   1.082       .  S
C1133      C1134   1.390       .  A
C1133      H1136   1.083       .  S
O1137      C1153   1.273       .  A
O1137     Zn1143   2.013       .  S
C1138      O1154   1.280       .  A
C1138      O1151   1.267       .  A
O1139      C1152   1.270       .  A
O1140      C1158   1.268       .  A
O1141      C1155   1.282       .  A
O1141     Cd1145   2.105       .  S
O1142     Cd1145   2.119       .  S
Zn1143     O1154   2.062       .  S
O1144      C1155   1.269       .  A
O1144     Cd1149   2.043       .  S
Cd1145     O1147   2.141       .  S
Cd1145     O1148   2.022       .  S
Cd1146     O1150   2.069       .  S
Cd1146     O1159   2.081       .  S
O1148     Cd1149   1.970       .  S
O1150      C1157   1.275       .  A
C1152      O1156   1.279       .  A
C1153      C1164   1.496       .  S
C1158      C1219   1.447       .  S
C1158      O1159   1.276       .  A
N1160      C1164   1.367       .  A
N1160      C1161   1.362       .  A
N1160      C1168   1.469       .  S
C1161      C1162   1.386       .  A
C1161      C1209   1.504       .  S
C1162      C1163   1.377       .  A
C1162      H1165   1.076       .  S
C1163      C1164   1.376       .  A
C1163      H1166   1.083       .  S
N1167      C1171   1.373       .  A
N1167      C1168   1.381       .  A
N1167      N1174   1.427       .  S
C1168      C1169   1.383       .  A
C1169      C1170   1.370       .  A
C1169      H1172   1.080       .  S
C1170      C1171   1.373       .  A
C1170      H1173   1.081       .  S
N1174      C1178   1.378       .  A
N1174      C1175   1.366       .  A
C1175      C1584   1.377       .  A
C1175      C1206   1.452       .  S
C1176      C1583   1.377       .  A
C1176      C1177   1.350       .  A
C1176      H1179   1.083       .  S
C1177      C1586   1.378       .  A
C1177      H1180   1.084       .  S
C1178      C1585   1.378       .  A
C1178      C1510   1.477       .  S
N1181      C1185   1.369       .  A
N1181      C1182   1.362       .  A
N1181      N1211   1.420       .  S
C1182      C1183   1.376       .  A
C1182      C1203   1.481       .  S
C1183      C1184   1.363       .  A
C1183      H1186   1.079       .  S
C1184      C1185   1.376       .  A
C1184      H1187   1.077       .  S
O1188      C1204   1.285       .  A
C1189      C1491   1.468       .  S
C1189      O1205   1.276       .  A
C1189      O1610   1.278       .  A
O1190      C1203   1.281       .  A
O1191      C1209   1.285       .  A
O1192      C1614   1.263       .  A
O1192     Cd1196   2.056       .  S
O1193     Cd1196   2.037       .  S
Zn1194     O1207   2.070       .  S
Zn1194     O1199   1.939       .  S
O1195      C1206   1.271       .  A
Cd1197     O1201   2.100       .  S
Cd1197     O1618   2.127       .  S
O1198      C1208   1.279   1_554  A
O1199     Cd1404   1.987       .  S
Cd1200     O1202   2.080       .  S
Cd1200     O1403   1.987   1_545  S
O1201      C1208   1.281       .  A
O1202      C1597   1.278       .  A
C1203      O1207   1.286       .  A
C1204      C1222   1.498       .  S
C1206      O1600   1.263       .  A
C1209      O1210   1.279   1_545  A
O1210     Cd1605   2.127       .  S
N1211      C1215   1.344       .  A
N1211      C1212   1.370       .  A
C1212      N1218   1.447       .  S
C1212      C1213   1.395       .  A
C1213      C1214   1.371       .  A
C1213      H1216   1.082       .  S
C1214      C1215   1.372       .  A
C1214      H1217   1.083       .  S
N1218      C1222   1.352       .  A
N1218      C1219   1.354       .  A
C1219      C1220   1.371   1_655  A
C1220      C1221   1.371       .  A
C1220      H1223   1.083       .  S
C1221      C1222   1.389   1_455  A
C1221      H1224   1.083       .  S
N1225      C1229   1.343       .  A
N1225      C1226   1.341       .  A
N1225      C1266   1.419       .  S
C1226      C1227   1.383       .  A
C1226      C1254   1.468       .  S
C1227      C1228   1.384       .  A
C1227      H1230   1.079       .  S
C1228      C1229   1.373       .  A
C1228      H1231   1.072       .  S
C1229      C1342   1.473       .  S
N1232      C1236   1.382       .  A
N1232      C1233   1.375       .  A
N1232      N1524   1.438       .  S
C1233      C1234   1.372       .  A
C1233      C1257   1.464       .  S
C1234      C1235   1.343       .  A
C1234      H1237   1.084       .  S
C1235      C1236   1.385       .  A
C1235      H1238   1.083       .  S
C1236      C1361   1.487       .  S
O1239      C1255   1.270       .  A
O1239     Zn1245   1.946       .  S
C1240      C1331   1.461       .  S
C1240      O1256   1.253       .  A
C1240      O1253   1.267       .  A
O1241      C1254   1.271       .  A
O1241     Cd1248   2.069       .  S
O1242      C1260   1.281       .  A
O1242     Cd1251   2.064       .  S
O1243      C1257   1.281       .  A
O1243     Cd1247   2.123       .  S
O1244      C1255   1.275       .  A
O1244     Cd1247   2.032       .  S
Zn1245     O1256   1.944       .  S
Zn1245     O1258   1.961       .  S
Zn1245     O1250   1.898       .  S
O1246      C1257   1.272       .  A
O1246     Cd1251   2.037       .  S
Cd1247     O1249   2.119       .  S
Cd1247     O1250   1.945       .  S
Cd1248     O1252   1.969       .  S
Cd1248     O1261   2.098       .  S
Cd1248     O1250   1.951       .  S
O1249      C1259   1.285       .  A
O1250     Cd1251   1.972       .  S
Cd1251     O1253   2.063       .  S
O1252      C1259   1.261       .  A
C1254      O1258   1.259       .  A
C1255      C1273   1.445       .  S
C1259      C1338   1.463       .  S
C1260      C1314   1.476       .  S
C1260      O1261   1.282       .  A
N1262      C1266   1.349       .  A
N1262      C1467   1.363       .  A
N1262      N1276   1.419       .  S
C1263      N1466   1.363       .  A
C1263      N1269   1.459   1_556  S
C1263      C1264   1.403       .  A
C1264      C1469   1.373       .  A
C1264      H1267   1.082       .  S
C1265      C1468   1.373       .  A
C1265      C1266   1.376       .  A
C1265      H1268   1.083       .  S
N1269      C1273   1.350       .  A
N1269      C1270   1.358       .  A
C1270      C1271   1.395       .  A
C1270      C1291   1.496       .  S
C1271      C1272   1.366       .  A
C1271      H1274   1.083       .  S
C1272      C1273   1.373       .  A
C1272      H1275   1.080       .  S
N1276      C1280   1.356       .  A
N1276      C1277   1.369       .  A
C1277      C1278   1.381       .  A
C1277      C1305   1.484       .  S
C1278      C1279   1.363       .  A
C1278      H1281   1.083       .  S
C1279      C1280   1.373       .  A
C1279      H1282   1.068       .  S
C1280      C1412   1.474       .  S
N1283      C1287   1.350       .  A
N1283      C1284   1.365       .  A
N1283      C1324   1.438       .  S
C1284      C1308   1.491       .  S
C1285      C1286   1.372       .  A
C1285      H1288   1.083       .  S
C1286      H1289   1.075       .  S
O1290      C1306   1.275   1_565  A
O1290     Zn1296   2.072       .  S
C1291      O1307   1.277       .  A
C1291      O1304   1.285       .  A
O1292      C1305   1.280       .  A
O1292     Cd1299   2.097       .  S
O1293      C1311   1.282       .  A
O1293     Cd1302   2.114       .  S
O1294      C1308   1.278       .  A
O1294     Cd1298   2.085       .  S
O1295     Cd1298   2.058       .  S
Zn1296     O1307   1.995       .  S
Zn1296     O1309   2.060       .  S
Zn1296     O1301   1.942       .  S
O1297     Cd1302   2.136       .  S
Cd1298     O1300   2.054       .  S
Cd1299     O1312   2.131       .  S
Cd1299     O1301   2.002       .  S
O1300      C1310   1.275       .  A
O1301     Cd1302   2.029       .  S
Cd1302     O1304   2.139       .  S
O1303      C1310   1.282       .  A
C1305      O1309   1.281       .  A
C1310      C1317   1.484       .  S
C1311      C1389   1.494       .  S
C1311      O1312   1.288       .  A
N1313      C1317   1.359       .  A
N1313      C1314   1.353       .  A
N1313      C1321   1.450       .  S
C1314      C1315   1.380       .  A
C1315      C1316   1.378       .  A
C1315      H1318   1.082       .  S
C1316      C1317   1.380       .  A
C1316      H1319   1.083       .  S
N1320      C1528   1.368       .  A
N1320      C1321   1.374       .  A
N1320      N1436   1.438       .  S
C1321      C1322   1.389       .  A
C1322      C1323   1.368       .  A
C1322      H1325   1.083       .  S
C1323      C1528   1.376       .  A
C1323      H1326   1.082       .  S
C1324      N1524   1.368       .  A
C1324      C1527   1.376   1_554  A
N1327      C1331   1.360       .  A
N1327      C1328   1.370       .  A
N1327      C1375   1.453       .  S
C1328      C1329   1.386       .  A
C1328      C1356   1.484       .  S
C1329      C1330   1.366       .  A
C1329      H1332   1.082   1_554  S
C1330      C1331   1.369       .  A
C1330      H1333   1.078       .  S
N1334      C1338   1.337       .  A
N1334      C1335   1.342       .  A
N1334      C1419   1.416       .  S
C1335      C1336   1.381       .  A
C1335      C1359   1.469       .  S
C1336      C1337   1.381       .  A
C1336      H1339   1.082       .  S
C1337      C1338   1.390       .  A
C1337      H1340   1.083       .  S
O1341      C1357   1.273       .  A
O1341     Zn1347   2.013       .  S
C1342      O1358   1.280       .  A
C1342      O1355   1.267       .  A
O1343      C1356   1.270       .  A
O1344      C1362   1.268       .  A
O1344     Cd1557   1.991   1_554  S
O1345      C1359   1.282       .  A
O1345     Cd1349   2.105       .  S
O1346     Cd1349   2.119       .  S
Zn1347     O1358   2.062       .  S
Zn1347     O1564   2.027       .  S
O1348      C1359   1.269       .  A
O1348     Cd1353   2.043       .  S
Cd1349     O1351   2.141       .  S
Cd1349     O1352   2.022       .  S
Cd1350     O1354   2.069       .  S
Cd1350     O1363   2.080       .  S
Cd1350     O1556   2.006   1_554  S
O1351      C1565   1.278       .  A
O1352     Cd1554   2.006       .  S
O1352     Cd1353   1.970       .  S
Cd1353     O1548   1.991       .  S
O1354      C1361   1.275       .  A
C1356      O1360   1.279   1_554  A
C1357      C1368   1.496       .  S
O1360     Zn1551   2.027       .  S
C1361      O1555   1.278   1_554  A
C1362      C1423   1.447       .  S
C1362      O1363   1.276       .  A
N1364      C1368   1.367       .  A
N1364      C1365   1.363       .  A
N1364      C1372   1.469       .  S
C1365      C1366   1.386       .  A
C1365      C1413   1.504       .  S
C1366      C1367   1.377       .  A
C1366      H1369   1.076       .  S
C1367      C1368   1.376       .  A
C1367      H1370   1.083       .  S
N1371      C1375   1.373       .  A
N1371      C1372   1.381       .  A
N1371      N1378   1.427       .  S
C1372      C1373   1.383       .  A
C1373      C1374   1.370       .  A
C1373      H1376   1.080       .  S
C1374      C1375   1.373       .  A
C1374      H1377   1.081       .  S
N1378      C1382   1.378       .  A
N1378      C1379   1.366       .  A
C1379      C1410   1.452       .  S
C1380      C1381   1.350       .  A
C1380      H1383   1.083       .  S
C1381      H1384   1.084       .  S
N1385      C1389   1.369       .  A
N1385      C1386   1.362       .  A
N1385      N1415   1.421       .  S
C1386      C1387   1.376       .  A
C1386      C1407   1.481       .  S
C1387      C1388   1.363       .  A
C1387      H1390   1.079       .  S
C1388      C1389   1.376       .  A
C1388      H1391   1.077       .  S
O1392      C1408   1.285       .  A
O1392     Zn1602   2.102   1_554  S
C1393      O1409   1.276   1_545  A
O1394      C1407   1.281       .  A
O1395      C1413   1.285       .  A
O1396     Cd1400   2.056   1_545  S
O1397     Cd1400   2.037       .  S
Zn1398     O1596   2.103       .  S
Zn1398     O1613   2.014       .  S
Zn1398     O1411   2.070       .  S
Zn1398     O1403   1.939       .  S
O1399      C1410   1.271       .  A
Cd1400     O1606   2.073       .  S
Cd1401     O1405   2.100       .  S
O1402      C1412   1.279       .  A
O1402     Cd1604   2.073       .  S
Cd1404     O1406   2.080   1_556  S
O1405      C1412   1.281       .  A
C1407      O1411   1.286       .  A
C1408      C1426   1.498       .  S
O1409     Zn1602   2.014   1_554  S
C1413      O1414   1.279       .  A
N1415      C1419   1.344       .  A
N1415      C1416   1.370       .  A
C1416      N1422   1.447       .  S
C1416      C1417   1.395       .  A
C1417      C1418   1.371       .  A
C1417      H1420   1.082       .  S
C1418      C1419   1.372       .  A
C1418      H1421   1.083       .  S
N1422      C1426   1.352       .  A
N1422      C1423   1.353       .  A
C1423      C1424   1.371   1_655  A
C1424      C1425   1.371       .  A
C1424      H1427   1.083       .  S
C1425      C1426   1.390   1_455  A
C1425      H1428   1.083       .  S
N1429      C1433   1.343       .  A
N1429      C1430   1.341       .  A
N1429      C1470   1.419       .  S
C1430      C1431   1.383       .  A
C1430      C1458   1.468       .  S
C1431      C1432   1.384       .  A
C1431      H1434   1.079       .  S
C1432      C1433   1.373       .  A
C1432      H1435   1.072       .  S
C1433      C1546   1.473       .  S
N1436      C1440   1.382       .  A
N1436      C1437   1.375       .  A
C1437      C1438   1.372       .  A
C1437      C1461   1.464       .  S
C1438      C1439   1.343       .  A
C1438      H1441   1.084       .  S
C1439      C1440   1.385       .  A
C1439      H1442   1.083       .  S
C1440      C1565   1.487       .  S
O1443      C1459   1.270       .  A
O1443     Zn1449   1.946       .  S
C1444      C1535   1.461       .  S
C1444      O1460   1.253       .  A
C1444      O1457   1.267       .  A
O1445      C1458   1.271       .  A
O1445     Cd1452   2.069       .  S
O1446      C1464   1.281       .  A
O1446     Cd1455   2.064       .  S
O1447      C1461   1.281       .  A
O1447     Cd1451   2.123       .  S
O1448      C1459   1.275       .  A
O1448     Cd1451   2.032       .  S
Zn1449     O1460   1.944       .  S
Zn1449     O1462   1.961       .  S
Zn1449     O1454   1.898       .  S
O1450      C1461   1.272       .  A
O1450     Cd1455   2.037       .  S
Cd1451     O1453   2.119       .  S
Cd1451     O1454   1.945       .  S
Cd1452     O1456   1.969       .  S
Cd1452     O1465   2.097       .  S
Cd1452     O1454   1.951       .  S
O1453      C1463   1.285       .  A
O1454     Cd1455   1.972       .  S
Cd1455     O1457   2.063       .  S
O1456      C1463   1.261       .  A
C1458      O1462   1.259       .  A
C1459      C1477   1.445       .  S
C1463      C1542   1.463       .  S
C1464      C1518   1.476       .  S
C1464      O1465   1.282       .  A
N1466      C1470   1.349       .  A
N1466      N1480   1.419       .  S
C1467      N1473   1.459       .  S
C1467      C1468   1.403       .  A
C1468      H1471   1.082       .  S
C1469      C1470   1.376       .  A
C1469      H1472   1.083       .  S
N1473      C1477   1.350       .  A
N1473      C1474   1.358       .  A
C1474      C1475   1.395       .  A
C1474      C1495   1.496       .  S
C1475      C1476   1.366       .  A
C1475      H1478   1.083       .  S
C1476      C1477   1.373       .  A
C1476      H1479   1.080       .  S
N1480      C1484   1.356       .  A
N1480      C1481   1.369       .  A
C1481      C1482   1.381       .  A
C1481      C1509   1.484       .  S
C1482      C1483   1.363   1_556  A
C1482      H1485   1.083       .  S
C1483      C1484   1.373   1_554  A
C1483      H1486   1.068       .  S
C1484      C1616   1.474       .  S
N1487      C1491   1.350       .  A
N1487      C1488   1.365       .  A
N1487      C1528   1.438       .  S
C1488      C1512   1.491       .  S
C1489      C1490   1.372       .  A
C1489      H1492   1.083       .  S
C1490      H1493   1.075       .  S
O1494      C1510   1.275   1_565  A
O1494     Zn1500   2.072       .  S
C1495      O1511   1.277       .  A
C1495      O1508   1.285       .  A
O1496      C1509   1.280       .  A
O1496     Cd1503   2.097       .  S
O1497      C1515   1.282       .  A
O1497     Cd1506   2.114       .  S
O1498      C1512   1.278       .  A
O1498     Cd1502   2.085       .  S
O1499     Cd1502   2.058       .  S
Zn1500     O1511   1.995       .  S
Zn1500     O1513   2.060       .  S
Zn1500     O1505   1.942       .  S
O1501     Cd1506   2.136       .  S
Cd1502     O1504   2.054       .  S
Cd1503     O1516   2.131       .  S
Cd1503     O1505   2.002       .  S
O1504      C1514   1.275       .  A
O1505     Cd1506   2.029       .  S
Cd1506     O1508   2.139       .  S
O1507      C1514   1.282       .  A
C1509      O1513   1.281       .  A
C1514      C1521   1.484       .  S
C1515      C1593   1.494       .  S
C1515      O1516   1.288       .  A
N1517      C1521   1.359       .  A
N1517      C1518   1.353       .  A
N1517      C1525   1.450       .  S
C1518      C1519   1.380       .  A
C1519      C1520   1.378       .  A
C1519      H1522   1.082       .  S
C1520      C1521   1.380       .  A
C1520      H1523   1.083       .  S
N1524      C1525   1.374   1_554  A
C1525      C1526   1.389       .  A
C1526      C1527   1.368       .  A
C1526      H1529   1.083       .  S
C1527      H1530   1.082       .  S
N1531      C1535   1.360       .  A
N1531      C1532   1.370       .  A
N1531      C1579   1.453       .  S
C1532      C1533   1.386       .  A
C1532      C1560   1.484       .  S
C1533      C1534   1.366       .  A
C1533      H1536   1.082       .  S
C1534      C1535   1.369       .  A
C1534      H1537   1.078       .  S
N1538      C1542   1.337       .  A
N1538      C1539   1.342       .  A
N1538      C1623   1.416       .  S
C1539      C1540   1.381       .  A
C1539      C1563   1.469       .  S
C1540      C1541   1.381       .  A
C1540      H1543   1.082       .  S
C1541      C1542   1.390       .  A
C1541      H1544   1.083       .  S
O1545      C1561   1.273       .  A
O1545     Zn1551   2.013       .  S
C1546      O1562   1.280       .  A
C1546      O1559   1.267       .  A
O1547      C1560   1.270       .  A
O1548      C1566   1.268       .  A
O1549      C1563   1.282       .  A
O1549     Cd1553   2.105       .  S
O1550     Cd1553   2.119       .  S
Zn1551     O1562   2.062       .  S
O1552      C1563   1.269       .  A
O1552     Cd1557   2.043       .  S
Cd1553     O1555   2.141       .  S
Cd1553     O1556   2.022       .  S
Cd1554     O1558   2.069       .  S
Cd1554     O1567   2.081       .  S
O1556     Cd1557   1.970       .  S
O1558      C1565   1.275       .  A
C1560      O1564   1.279       .  A
C1561      C1572   1.496       .  S
C1566      C1627   1.447       .  S
C1566      O1567   1.276       .  A
N1568      C1572   1.367       .  A
N1568      C1569   1.362       .  A
N1568      C1576   1.469       .  S
C1569      C1570   1.386       .  A
C1569      C1617   1.504       .  S
C1570      C1571   1.377       .  A
C1570      H1573   1.076       .  S
C1571      C1572   1.376       .  A
C1571      H1574   1.083       .  S
N1575      C1579   1.373       .  A
N1575      C1576   1.381       .  A
N1575      N1582   1.427       .  S
C1576      C1577   1.383       .  A
C1577      C1578   1.370       .  A
C1577      H1580   1.080       .  S
C1578      C1579   1.373       .  A
C1578      H1581   1.081       .  S
N1582      C1586   1.378       .  A
N1582      C1583   1.366       .  A
C1583      C1614   1.452       .  S
C1584      C1585   1.350       .  A
C1584      H1587   1.083       .  S
C1585      H1588   1.084       .  S
N1589      C1593   1.369       .  A
N1589      C1590   1.362       .  A
N1589      N1619   1.420       .  S
C1590      C1591   1.376       .  A
C1590      C1611   1.481       .  S
C1591      C1592   1.363       .  A
C1591      H1594   1.079       .  S
C1592      C1593   1.376       .  A
C1592      H1595   1.077       .  S
O1596      C1612   1.285       .  A
C1597      O1613   1.276   1_545  A
O1598      C1611   1.281       .  A
O1599      C1617   1.285       .  A
O1600     Cd1604   2.056   1_545  S
O1601     Cd1604   2.037       .  S
Zn1602     O1615   2.070       .  S
Zn1602     O1607   1.939       .  S
O1603      C1614   1.271       .  A
Cd1605     O1609   2.100       .  S
O1606      C1616   1.279   1_554  A
Cd1608     O1610   2.080       .  S
O1609      C1616   1.281       .  A
C1611      O1615   1.286       .  A
C1612      C1630   1.498       .  S
C1617      O1618   1.279       .  A
N1619      C1623   1.344       .  A
N1619      C1620   1.370       .  A
C1620      N1626   1.447       .  S
C1620      C1621   1.395       .  A
C1621      C1622   1.371       .  A
C1621      H1624   1.082       .  S
C1622      C1623   1.372       .  A
C1622      H1625   1.083       .  S
N1626      C1630   1.352       .  A
N1626      C1627   1.354       .  A
C1627      C1628   1.371   1_655  A
C1628      C1629   1.371       .  A
C1628      H1631   1.083       .  S
C1629      C1630   1.390   1_455  A
C1629      H1632   1.083       .  S
