geometry optimzed in LAMMPS
_audit_creation_date              2020-11-30 
_audit_creation_method            'lammps2cif' 
_symmetry_space_group_name_H-M    'P1' 
_symmetry_Int_Tables_number       1 
_symmetry_cell_setting            triclinic 
loop_ 
_symmetry_equiv_pos_as_xyz 
  x,y,z 
_cell_length_a                    53.37250974 
_cell_length_b                    54.527340464626775 
_cell_length_c                    55.64367040399996 
_cell_angle_alpha                 89.75849649370998 
_cell_angle_beta                  89.47614680959587 
_cell_angle_gamma                 88.8520266052254 
loop_ 
_atom_site_label 
_atom_site_type_symbol 
_atom_site_fract_x 
_atom_site_fract_y 
_atom_site_fract_z 
_atom_site_charge 
Zn1        Zn  0.47906481  0.47125640  0.98849187     1.49700
Zn2        Zn  0.48654116  0.52235737  0.99531003     1.49400
Zn3        Zn  0.48761827  0.48145978  0.03770883     1.49100
Zn4        Zn  0.53066124  0.48068350  0.99706744     1.49500
O5          O  0.49810216  0.49116511  0.00648138    -1.83000
O6          O  0.47584834  0.48382671  0.95617433    -0.73600
O7          O  0.47699354  0.54049203  0.02529925    -0.73400
O8          O  0.46312456  0.45186125  0.03379157    -0.72900
O9          O  0.45816370  0.51798199  0.96911513    -0.73600
O10         O  0.44585328  0.47068869  0.00310349    -0.73200
O11         O  0.47528427  0.51212390  0.05430790    -0.73800
O12         O  0.54898690  0.46958563  0.02734553    -0.73200
O13         O  0.51796605  0.54123512  0.98762601    -0.74000
O14         O  0.51992639  0.47704734  0.05573987    -0.73300
O15         O  0.54815831  0.51258824  0.99142692    -0.73800
O16         O  0.52672018  0.45567636  0.96841352    -0.73700
O17         O  0.49455262  0.43838769  0.98619046    -0.73500
C18         C  0.45843146  0.49965992  0.95466727     0.78300
C19         C  0.47727014  0.53441179  0.04748806     0.78800
C20         C  0.44648576  0.45265610  0.01726957     0.77700
C21         C  0.54276230  0.47522546  0.04893670     0.78100
C22         C  0.54086131  0.53507961  0.99141613     0.79200
C23         C  0.51001579  0.43901706  0.96886638     0.78300
Zn24       Zn  0.49460626  0.96431925  0.52514104     1.49700
Zn25       Zn  0.49900310  0.01319940  0.54514060     1.49400
Zn26       Zn  0.50363738  0.00626032  0.48612493     1.49100
Zn27       Zn  0.45527558  0.01056860  0.51524569     1.49500
O28         O  0.48816186  0.99732884  0.51637652    -1.83000
O29         O  0.52840100  0.96511628  0.54479178    -0.73600
O30         O  0.52544583  0.03532885  0.53408983    -0.73400
O31         O  0.51501023  0.97471805  0.46926340    -0.72900
O32         O  0.51369450  0.99213527  0.57045364    -0.73600
O33         O  0.49877648  0.94709472  0.49402586    -0.73200
O34         O  0.53082449  0.03178060  0.49435275    -0.73800
O35         O  0.44311341  0.00586296  0.48131741    -0.73200
O36         O  0.47175673  0.03188157  0.56064866    -0.74000
O37         O  0.47710925  0.01629558  0.46086315    -0.73300
O38         O  0.45995128  0.04719916  0.52642368    -0.73800
O39         O  0.43677105  0.98593547  0.53544663    -0.73700
O40         O  0.46008925  0.95154206  0.53528103    -0.73500
C41         C  0.53191062  0.97936601  0.56266598     0.78300
C42         C  0.53680223  0.04102879  0.51474133     0.78800
C43         C  0.50599806  0.95346672  0.47315089     0.77700
C44         C  0.45441287  0.00916487  0.46139634     0.78100
C45         C  0.46870836  0.05046895  0.54746098     0.79200
C46         C  0.43915715  0.96288268  0.53129432     0.78300
Zn47       Zn  0.02912826  0.46725133  0.49314144     1.49700
Zn48       Zn  0.02719127  0.51615311  0.51297473     1.49400
Zn49       Zn  0.00689985  0.51506737  0.46626849     1.49100
Zn50       Zn  0.97888004  0.49501644  0.51387152     1.49500
O51         O  0.00869271  0.49601316  0.49453003    -1.83000
O52         O  0.06052529  0.47210517  0.51634086    -0.73600
O53         O  0.05472541  0.52907686  0.49368871    -0.73400
O54         O  0.02066131  0.49406096  0.43914375    -0.72900
O55         O  0.04056883  0.49812808  0.54040603    -0.73600
O56         O  0.03404446  0.45968616  0.45719507    -0.73200
O57         O  0.02558660  0.54857184  0.47295788    -0.73800
O58         O  0.94954132  0.50435220  0.49276449    -0.73200
O59         O  0.00635507  0.54342049  0.52547266    -0.74000
O60         O  0.96970149  0.51346209  0.45853266    -0.73300
O61         O  0.98433084  0.51598363  0.54502127    -0.73800
O62         O  0.97135274  0.45914059  0.51756996    -0.73700
O63         O  0.00458762  0.44058208  0.50047193    -0.73500
C64         C  0.05985559  0.48530751  0.53553361     0.78300
C65         C  0.04649530  0.54870571  0.48432933     0.78800
C66         C  0.02639644  0.47117222  0.43841040     0.77700
C67         C  0.95001584  0.50675714  0.46994024     0.78100
C68         C  0.99601935  0.53635437  0.54471179     0.79200
C69         C  0.98151748  0.44073616  0.50683034     0.78300
Zn70       Zn  0.04707402  0.99466556  0.98030761     1.49700
Zn71       Zn  0.99971866  0.99537009  0.01204030     1.49400
Zn72       Zn  0.00433148  0.03889373  0.97445020     1.49100
Zn73       Zn  0.00181894  0.98998351  0.95287365     1.49500
O74         O  0.01312775  0.00576504  0.98155956    -1.83000
O75         O  0.06112714  0.99856446  0.01338231    -0.73600
O76         O  0.98845821  0.02614554  0.03099719    -0.73400
O77         O  0.03703561  0.05359026  0.96175307    -0.72900
O78         O  0.02871984  0.98657333  0.03522939    -0.73600
O79         O  0.06216592  0.02070672  0.95964965    -0.73200
O80         O  0.00177126  0.05538413  0.00652685    -0.73800
O81         O  0.98511667  0.01144800  0.92908128    -0.73200
O82         O  0.97310492  0.96831652  0.00369295    -0.74000
O83         O  0.96961790  0.03636767  0.95631542    -0.73300
O84         O  0.97715836  0.96509920  0.96375400    -0.73800
O85         O  0.03027214  0.97539369  0.93526404    -0.73700
O86         O  0.04565627  0.95869972  0.96753971    -0.73500
C87         C  0.05115174  0.99451259  0.03384403     0.78300
C88         C  0.99628679  0.04797918  0.02761445     0.78800
C89         C  0.05853913  0.04322480  0.96529864     0.77700
C90         C  0.96638567  0.02252115  0.93805610     0.78100
C91         C  0.96676850  0.95869263  0.98345785     0.79200
C92         C  0.03634303  0.95628841  0.94666497     0.78300
Zn93       Zn  0.54239008  0.75157370  0.23264616     1.49700
Zn94       Zn  0.48042078  0.75334507  0.23337328     1.49400
Zn95       Zn  0.51576653  0.75600269  0.27695624     1.49100
Zn96       Zn  0.51518198  0.79923662  0.23565414     1.49500
O97         O  0.51175512  0.76558657  0.24485309    -1.83000
O98         O  0.53260382  0.72962387  0.20592352    -0.73600
O99         O  0.45680935  0.74589379  0.26249900    -0.73400
O100        O  0.53033248  0.71984280  0.27607608    -0.72900
O101        O  0.49057596  0.72704881  0.20762143    -0.73600
O102        O  0.56260881  0.73200390  0.25537686    -0.73200
O103        O  0.48196393  0.75874031  0.29118510    -0.73800
O104        O  0.52710309  0.81522278  0.26611826    -0.73200
O105        O  0.45895623  0.78150534  0.22039602    -0.74000
O106        O  0.53247943  0.78454204  0.29272402    -0.73300
O107        O  0.47996810  0.81335708  0.23364302    -0.73800
O108        O  0.53546924  0.79845793  0.20292871    -0.73700
O109        O  0.56393015  0.77825963  0.22262781    -0.73500
C110        C  0.51211141  0.72086047  0.19856176     0.78300
C111        C  0.46014688  0.75470649  0.28352643     0.78800
C112        C  0.55060825  0.71466430  0.26458719     0.77700
C113        C  0.52759024  0.80716370  0.28783926     0.78100
C114        C  0.45934524  0.80337784  0.22851624     0.79200
C115        C  0.55556872  0.78530355  0.20271228     0.78300
Zn116      Zn  0.47160531  0.26792650  0.75456880     1.49700
Zn117      Zn  0.52150863  0.24675283  0.75311493     1.49400
Zn118      Zn  0.47287255  0.21709929  0.73648962     1.49100
Zn119      Zn  0.49145520  0.26410757  0.70554644     1.49500
O120        O  0.49086328  0.24688725  0.73578750    -1.83000
O121        O  0.47906515  0.26416580  0.78886626    -0.73600
O122        O  0.53227272  0.21116995  0.75834970    -0.73400
O123        O  0.44252893  0.22266065  0.76133660    -0.72900
O124        O  0.51863025  0.27197778  0.78146221    -0.73600
O125        O  0.43597375  0.26110430  0.75066733    -0.73200
O126        O  0.49906690  0.19136513  0.74485521    -0.73800
O127        O  0.48361321  0.23839167  0.68129861    -0.73200
O128        O  0.54764365  0.25447891  0.72893110    -0.74000
O129        O  0.46889164  0.20612456  0.70147904    -0.73300
O130        O  0.52828847  0.26844502  0.69601720    -0.73800
O131        O  0.46643903  0.29477170  0.70787897    -0.73700
O132        O  0.47969994  0.30126368  0.74425679    -0.73500
C133        C  0.49860095  0.27558059  0.79396097     0.78300
C134        C  0.52244787  0.19200851  0.74955835     0.78800
C135        C  0.43063383  0.24326097  0.76427373     0.77700
C136        C  0.47936915  0.21545707  0.68283164     0.78100
C137        C  0.54770030  0.25963304  0.70659588     0.79200
C138        C  0.46540855  0.30745219  0.72725046     0.78300
Zn139      Zn  0.21361464  0.45281277  0.75846365     1.49700
Zn140      Zn  0.25734227  0.48662203  0.74150493     1.49400
Zn141      Zn  0.19789917  0.50315987  0.74710726     1.49100
Zn142      Zn  0.23003048  0.50284683  0.78824359     1.49500
O143        O  0.22643422  0.48517234  0.75903795    -1.83000
O144        O  0.24380704  0.43090026  0.75617506    -0.73600
O145        O  0.25042703  0.51187670  0.71403542    -0.73400
O146        O  0.16927865  0.48244332  0.74106832    -0.72900
O147        O  0.27086326  0.45166583  0.73401232    -0.73600
O148        O  0.19162739  0.45205710  0.72709296    -0.73200
O149        O  0.20928315  0.52119572  0.71761447    -0.73800
O150        O  0.22142267  0.53961093  0.78012086    -0.73200
O151        O  0.28533115  0.49512519  0.76468238    -0.74000
O152        O  0.18480827  0.52631083  0.77094838    -0.73300
O153        O  0.26486401  0.49636250  0.79944192    -0.73800
O154        O  0.20737362  0.48358261  0.80975161    -0.73700
O155        O  0.20151151  0.44738054  0.79306948    -0.73500
C156        C  0.26526570  0.43253747  0.74626222     0.78300
C157        C  0.23054093  0.52376543  0.70731342     0.78800
C158        C  0.17479316  0.46869935  0.72369314     0.77700
C159        C  0.19950417  0.54399146  0.77200980     0.78100
C160        C  0.28519074  0.49345044  0.78760113     0.79200
C161        C  0.21076007  0.46027746  0.80996916     0.78300
Zn162      Zn  0.34685009  0.35192780  0.85927372     1.49700
Zn163      Zn  0.35770580  0.39623760  0.89807417     1.49400
Zn164      Zn  0.39571409  0.34834206  0.89422332     1.49100
Zn165      Zn  0.39507349  0.38839758  0.85162264     1.49500
O166        O  0.37359595  0.37129422  0.87576607    -1.83000
O167        O  0.31028035  0.36411297  0.86994688    -0.73600
O168        O  0.36494704  0.38669785  0.93424899    -0.73400
O169        O  0.38838289  0.31240059  0.88446636    -0.72900
O170        O  0.31926388  0.39493754  0.89437378    -0.73600
O171        O  0.35263040  0.31368590  0.86411545    -0.73200
O172        O  0.38813004  0.35246868  0.93030049    -0.73800
O173        O  0.43326147  0.38136661  0.85815785    -0.73200
O174        O  0.36779919  0.43246089  0.88850194    -0.74000
O175        O  0.43381270  0.35506696  0.88878415    -0.73300
O176        O  0.38928968  0.42542707  0.85465051    -0.73800
O177        O  0.38518822  0.37913109  0.81655770    -0.73700
O178        O  0.35117842  0.35694162  0.82267037    -0.73500
C179        C  0.30310392  0.38192366  0.88360412     0.78300
C180        C  0.37636246  0.36804706  0.94356161     0.78800
C181        C  0.37090086  0.30136706  0.87338930     0.77700
C182        C  0.44547948  0.36838289  0.87353529     0.78100
C183        C  0.37920024  0.44039546  0.86966693     0.79200
C184        C  0.36705541  0.36680198  0.80829811     0.78300
N185        N  0.27652774  0.38773495  0.88755336    -0.02300
C186        C  0.26605034  0.38101897  0.90922182     0.00300
C187        C  0.25580193  0.40123734  0.92086509    -0.22600
C188        C  0.25795165  0.42057933  0.90575866    -0.22800
C189        C  0.26885381  0.41181183  0.88474850     0.00200
H190        H  0.24391948  0.40136843  0.93671474     0.13900
H191        H  0.24809110  0.43792499  0.90830955     0.14000
N192        N  0.38036179  0.46649664  0.86422695    -0.02300
C193        C  0.39835464  0.48199788  0.87226223     0.00300
C194        C  0.40532249  0.49831130  0.85447179    -0.22600
C195        C  0.39049198  0.49417885  0.83532134    -0.22800
C196        C  0.37504289  0.47517651  0.84169683     0.00200
H197        H  0.41864344  0.51293268  0.85590838     0.13900
H198        H  0.38942769  0.50545599  0.81929072     0.14000
N199        N  0.47280512  0.36842950  0.87318676    -0.02300
C200        C  0.48871327  0.38174885  0.88707386     0.00300
C201        C  0.51310811  0.37953793  0.87888686    -0.22600
C202        C  0.51288577  0.36467933  0.85946172    -0.22800
C203        C  0.48832395  0.35809618  0.85611000     0.00200
H204        H  0.52949542  0.38767895  0.88665204     0.13900
H205        H  0.52917853  0.35840288  0.84932243     0.14000
N206        N  0.36504508  0.36222834  0.78255392    -0.02300
C207        C  0.34112959  0.35946947  0.77449243     0.00300
C208        C  0.33724241  0.33571762  0.76723877    -0.22600
C209        C  0.36001805  0.32408041  0.76795243    -0.22800
C210        C  0.37733212  0.34163500  0.77403501     0.00200
H211        H  0.32050876  0.32855825  0.75922946     0.13900
H212        H  0.36414871  0.30653631  0.75960509     0.14000
N213        N  0.37260385  0.27468906  0.87101041    -0.02300
C214        C  0.36990074  0.26059960  0.89134646     0.00300
C215        C  0.39093195  0.24580031  0.89478275    -0.22600
C216        C  0.40570170  0.24838603  0.87494111    -0.22800
C217        C  0.39341529  0.26468736  0.85985532     0.00200
H218        H  0.39320019  0.23127838  0.90795475     0.13900
H219        H  0.42137736  0.23638692  0.87017262     0.14000
N220        N  0.37534499  0.36352490  0.96932850    -0.02300
C221        C  0.39320049  0.36925071  0.98575875     0.00300
C222        C  0.39110485  0.35494412  0.00621863    -0.22600
C223        C  0.37181544  0.33964019  0.00269030    -0.22800
C224        C  0.36253271  0.34501277  0.98022162     0.00200
H225        H  0.40157754  0.35660131  0.02268881     0.13900
H226        H  0.36447311  0.32664415  0.01558397     0.14000
Zn227      Zn  0.23946306  0.20525120  0.96633330     1.49700
Zn228      Zn  0.24223500  0.24939296  0.00124542     1.49400
Zn229      Zn  0.24485044  0.25283946  0.94236319     1.49100
Zn230      Zn  0.19666803  0.25155753  0.96717120     1.49500
O231        O  0.22996028  0.23893061  0.97087157    -1.83000
O232        O  0.23957303  0.18902397  0.99924317    -0.73600
O233        O  0.26903552  0.27517294  0.99399236    -0.73400
O234        O  0.25855025  0.22784473  0.92062611    -0.72900
O235        O  0.25285955  0.21962193  0.02152232    -0.73600
O236        O  0.27521495  0.20636138  0.94950136    -0.73200
O237        O  0.27157648  0.27473132  0.95371106    -0.73800
O238        O  0.20168274  0.28735836  0.95304898    -0.73200
O239        O  0.21315007  0.26026903  0.02278394    -0.74000
O240        O  0.22196308  0.27236173  0.92215527    -0.73300
O241        O  0.18102574  0.25107757  0.99988824    -0.73800
O242        O  0.17978113  0.22322414  0.95037315    -0.73700
O243        O  0.20875431  0.19320526  0.94894815    -0.73500
C244        C  0.24544143  0.19754458  0.01971061     0.78300
C245        C  0.27863538  0.28261043  0.97404231     0.78800
C246        C  0.27789397  0.21854695  0.92997523     0.77700
C247        C  0.21427488  0.29085842  0.93367916     0.78100
C248        C  0.19032071  0.25414634  0.02059526     0.79200
C249        C  0.18695455  0.20119040  0.95544474     0.78300
Zn250      Zn  0.76732453  0.50097539  0.20988314     1.49700
Zn251      Zn  0.74811098  0.52982318  0.25765810     1.49400
Zn252      Zn  0.71938883  0.48131933  0.24110601     1.49100
Zn253      Zn  0.77076013  0.48308424  0.25672227     1.49500
O254        O  0.74876300  0.50073937  0.23912579    -1.83000
O255        O  0.76515320  0.53686598  0.19992385    -0.73600
O256        O  0.71093914  0.53964186  0.26032477    -0.73400
O257        O  0.71031992  0.47663615  0.20616500    -0.72900
O258        O  0.76059997  0.55603923  0.23507000    -0.73600
O259        O  0.74475529  0.48637792  0.18529906    -0.73200
O260        O  0.69108307  0.50564737  0.24983861    -0.73800
O261        O  0.75282854  0.47170593  0.28441287    -0.73200
O262        O  0.76956624  0.52356909  0.28922194    -0.74000
O263        O  0.72680175  0.44978314  0.26371597    -0.73300
O264        O  0.79832171  0.50293953  0.26877042    -0.73800
O265        O  0.78358775  0.45535831  0.23792552    -0.73700
O266        O  0.80231382  0.48263017  0.21536114    -0.73500
C267        C  0.75952014  0.55607013  0.21210357     0.78300
C268        C  0.69105027  0.52878323  0.25387983     0.78800
C269        C  0.72114521  0.48283271  0.18650823     0.77700
C270        C  0.74216471  0.45165618  0.28126513     0.78100
C271        C  0.79094687  0.51228422  0.28842361     0.79200
C272        C  0.80320389  0.46251628  0.22748030     0.78300
Zn273      Zn  0.24350196  0.72512227  0.51902443     1.49700
Zn274      Zn  0.25048351  0.77746198  0.51140091     1.49400
Zn275      Zn  0.29621932  0.73830232  0.51320071     1.49100
Zn276      Zn  0.25690471  0.73565618  0.46974272     1.49500
O277        O  0.26360162  0.74574335  0.50162551    -1.83000
O278        O  0.20996185  0.73851469  0.51991663    -0.73600
O279        O  0.27941902  0.79736982  0.52341437    -0.73400
O280        O  0.29293748  0.71118986  0.54001939    -0.72900
O281        O  0.22077902  0.77285593  0.53680823    -0.73600
O282        O  0.25567492  0.72445499  0.55185205    -0.73200
O283        O  0.31204627  0.77168245  0.51790415    -0.73800
O284        O  0.29062283  0.72814242  0.45390657    -0.73200
O285        O  0.24492104  0.79604120  0.48003852    -0.74000
O286        O  0.31673394  0.72741231  0.48489012    -0.73300
O287        O  0.24983132  0.76717285  0.45203619    -0.73800
O288        O  0.22741609  0.71016065  0.47146971    -0.73700
O289        O  0.24085451  0.69217781  0.50446661    -0.73500
C290        C  0.20651246  0.75419847  0.53615263     0.78300
C291        C  0.30272989  0.79342334  0.51923942     0.78800
C292        C  0.27358193  0.70924010  0.55370020     0.77700
C293        C  0.31267179  0.73003904  0.46247821     0.78100
C294        C  0.24894692  0.78969699  0.45817237     0.79200
C295        C  0.22443677  0.69413743  0.48825596     0.78300
Zn296      Zn  0.59748021  0.64125494  0.09638033     1.49700
Zn297      Zn  0.62619171  0.65030537  0.14598945     1.49400
Zn298      Zn  0.59783106  0.59865147  0.13606479     1.49100
Zn299      Zn  0.64815022  0.61115826  0.10513303     1.49500
O300        O  0.61789391  0.62523278  0.12131901    -1.83000
O301        O  0.60227362  0.67829761  0.09704037    -0.73600
O302        O  0.61410788  0.63838966  0.18095918    -0.73400
O303        O  0.55975898  0.60504428  0.12948774    -0.72900
O304        O  0.61345313  0.68590361  0.13468506    -0.73600
O305        O  0.56040302  0.63694817  0.10443822    -0.73200
O306        O  0.60138365  0.60063782  0.17279026    -0.73800
O307        O  0.64773283  0.57334684  0.10885874    -0.73200
O308        O  0.66467338  0.65197237  0.14702235    -0.74000
O309        O  0.61050299  0.56388410  0.12442301    -0.73300
O310        O  0.68091910  0.62610576  0.11976748    -0.73800
O311        O  0.64593067  0.61613810  0.06784454    -0.73700
O312        O  0.60625822  0.62805177  0.06231743    -0.73500
C313        C  0.60640484  0.69362731  0.11384961     0.78300
C314        C  0.60645431  0.61727779  0.18811641     0.78800
C315        C  0.54830386  0.62195564  0.11758610     0.77700
C316        C  0.63150136  0.55728150  0.11481126     0.78100
C317        C  0.68370979  0.64212007  0.13636668     0.79200
C318        C  0.62734900  0.62038898  0.05383724     0.78300
N319        N  0.63039069  0.61648158  0.02810800    -0.02300
C320        C  0.64984350  0.62389899  0.01389368     0.00300
C321        C  0.64754823  0.61541417  0.99071702    -0.22600
C322        C  0.62606503  0.60255464  0.99008178    -0.22800
C323        C  0.61580986  0.60332177  0.01292086     0.00200
H324        H  0.65957010  0.61945812  0.97549112     0.13900
H325        H  0.61877030  0.59311574  0.97463861     0.14000
N326        N  0.63686762  0.53159981  0.10908927    -0.02300
C327        C  0.62778130  0.52215105  0.08818443     0.00300
C328        C  0.64713487  0.51234360  0.07430867    -0.22600
C329        C  0.66827466  0.51324649  0.08758886    -0.22800
C330        C  0.66141010  0.52385749  0.10914321     0.00200
H331        H  0.64520728  0.50153918  0.05816335     0.13900
H332        H  0.68566744  0.50347817  0.08357389     0.14000
N333        N  0.70852190  0.64917381  0.14404108    -0.02300
C334        C  0.71583260  0.67312208  0.14252847     0.00300
C335        C  0.72731959  0.68036851  0.16342558    -0.22600
C336        C  0.72820119  0.66058670  0.17815227    -0.22800
C337        C  0.71722424  0.64169550  0.16597141     0.00200
H338        H  0.73711105  0.69726671  0.16642085     0.13900
H339        H  0.73820656  0.65935410  0.19497062     0.14000
N340        N  0.52140762  0.62528225  0.11998257    -0.02300
C341        C  0.50907849  0.64524093  0.12941581     0.00300
C342        C  0.48347995  0.64291922  0.12765161    -0.22600
C343        C  0.47953975  0.62101171  0.11680935    -0.22800
C344        C  0.50284014  0.61052308  0.11219930     0.00200
H345        H  0.46916613  0.65552304  0.13437902     0.13900
H346        H  0.46152682  0.61366692  0.11217613     0.14000
N347        N  0.60106101  0.71969297  0.10923916    -0.02300
C348        C  0.60167050  0.72701573  0.08565537     0.00300
C349        C  0.57759162  0.73170595  0.07749986    -0.22600
C350        C  0.56233797  0.73138140  0.09728554    -0.22800
C351        C  0.57802041  0.72810651  0.11673889     0.00200
H352        H  0.57219618  0.73921217  0.06023886     0.13900
H353        H  0.54330319  0.73862550  0.09777395     0.14000
N354        N  0.60258866  0.61169366  0.21364775    -0.02300
C355        C  0.58090672  0.61928254  0.22520579     0.00300
C356        C  0.56982573  0.59974074  0.23687762    -0.22600
C357        C  0.58553111  0.58002877  0.23434115    -0.22800
C358        C  0.60589063  0.58782312  0.22125077     0.00200
H359        H  0.55388209  0.60045585  0.24902786     0.13900
H360        H  0.58412156  0.56292598  0.24417718     0.14000
Zn361      Zn  0.76579922  0.77428403  0.99012773     1.49700
Zn362      Zn  0.76449240  0.72673139  0.00996452     1.49400
Zn363      Zn  0.74267925  0.77535930  0.03771990     1.49100
Zn364      Zn  0.71599338  0.75667666  0.99027297     1.49500
O365        O  0.74528829  0.75644656  0.00941104    -1.83000
O366        O  0.80121897  0.76974992  0.99828480    -0.73600
O367        O  0.76742731  0.71819525  0.04512167    -0.73400
O368        O  0.76343233  0.80769015  0.03154643    -0.72900
O369        O  0.79738194  0.73097011  0.98851876    -0.73600
O370        O  0.75645376  0.80897362  0.99246800    -0.73200
O371        O  0.75391899  0.75207675  0.06406555    -0.73800
O372        O  0.68711696  0.76833234  0.01133622    -0.73200
O373        O  0.74036030  0.70028041  0.00082392    -0.74000
O374        O  0.70514147  0.77728299  0.04602282    -0.73300
O375        O  0.70689650  0.72137793  0.98771543    -0.73800
O376        O  0.72271795  0.77567233  0.95800507    -0.73700
O377        O  0.76207886  0.76308403  0.95724752    -0.73500
C378        C  0.80971147  0.75097866  0.98747640     0.78300
C379        C  0.75864191  0.72894076  0.06384341     0.78800
C380        C  0.76561482  0.81844929  0.01100657     0.77700
C381        C  0.68576985  0.77146412  0.03406719     0.78100
C382        C  0.71714818  0.70154083  0.99542855     0.79200
C383        C  0.74403586  0.77415039  0.94723256     0.78300
Zn384      Zn  0.10621037  0.64397616  0.64494667     1.49700
Zn385      Zn  0.15080681  0.60276988  0.64570274     1.49400
Zn386      Zn  0.10845535  0.60201206  0.60386258     1.49100
Zn387      Zn  0.15133238  0.64558751  0.60419245     1.49500
O388        O  0.12930614  0.62353905  0.62439889    -1.83000
O389        O  0.11922213  0.64452118  0.67976188    -0.73600
O390        O  0.14571058  0.56532223  0.63887764    -0.73400
O391        O  0.07098907  0.60259071  0.61620609    -0.72900
O392        O  0.14758230  0.61412892  0.68154182    -0.73600
O393        O  0.06939166  0.63049162  0.64523551    -0.73200
O394        O  0.12068263  0.56526613  0.60711922    -0.73800
O395        O  0.14128549  0.64243970  0.56800463    -0.73200
O396        O  0.18760296  0.60791356  0.63719350    -0.74000
O397        O  0.11115158  0.61466099  0.56798258    -0.73300
O398        O  0.19013646  0.63590462  0.60829731    -0.73800
O399        O  0.14288922  0.68274117  0.61230731    -0.73700
O400        O  0.10747510  0.68007420  0.63331654    -0.73500
C401        C  0.13550458  0.63200156  0.69159957     0.78300
C402        C  0.13448554  0.55351818  0.62229905     0.78800
C403        C  0.05865918  0.61392354  0.63287592     0.77700
C404        C  0.12466610  0.63040988  0.55671182     0.78100
C405        C  0.20082376  0.62025546  0.62246619     0.79200
C406        C  0.12343931  0.69308869  0.62189162     0.78300
N407        N  0.03327795  0.60605729  0.63932026    -0.02300
C408        C  0.02012579  0.61171989  0.66008584     0.00300
C409        C  0.00318395  0.59366835  0.66562002    -0.22600
C410        C  0.00474079  0.57680202  0.64797903    -0.22800
C411        C  0.02279834  0.58452412  0.63193255     0.00200
H412        H  0.98921918  0.59399932  0.67986583     0.13900
H413        H  0.99223205  0.56158112  0.64587031     0.14000
N414        N  0.11801025  0.71934575  0.61816657    -0.02300
C415        C  0.09699450  0.73049035  0.62776986     0.00300
C416        C  0.08522118  0.74552010  0.61124315    -0.22600
C417        C  0.09989130  0.74530269  0.59116787    -0.22800
C418        C  0.12077966  0.73086281  0.59628422     0.00200
H419        H  0.06912961  0.75750790  0.61445207     0.13900
H420        H  0.09746094  0.75739028  0.57584729     0.14000
N421        N  0.11914099  0.63652681  0.53156613    -0.02300
C422        C  0.09568813  0.63278585  0.52246774     0.00300
C423        C  0.08820230  0.65196247  0.50792830    -0.22600
C424        C  0.10780053  0.66718459  0.50607699    -0.22800
C425        C  0.12714889  0.65740239  0.51989473     0.00200
H426        H  0.07173033  0.65280891  0.49670970     0.13900
H427        H  0.10858128  0.68206455  0.49320455     0.14000
N428        N  0.14232244  0.64000042  0.71567569    -0.02300
C429        C  0.13656473  0.66311649  0.72389774     0.00300
C430        C  0.15643870  0.67240015  0.73639859    -0.22600
C431        C  0.17431338  0.65433043  0.73751823    -0.22800
C432        C  0.16505869  0.63417655  0.72569399     0.00200
H433        H  0.15642370  0.68913469  0.74680258     0.13900
H434        H  0.19056511  0.65482446  0.74897760     0.14000
N435        N  0.13917481  0.52698569  0.61931569    -0.02300
C436        C  0.14051435  0.51860639  0.59611321     0.00300
C437        C  0.16385201  0.50842225  0.59129481    -0.22600
C438        C  0.17603470  0.50723599  0.61261674    -0.22800
C439        C  0.15938467  0.51564702  0.63022470     0.00200
H440        H  0.16996559  0.49918779  0.57502678     0.13900
H441        H  0.19367337  0.49752491  0.61527485     0.14000
N442        N  0.22787251  0.61501810  0.62129839    -0.02300
C443        C  0.24084638  0.59728006  0.63402818     0.00300
C444        C  0.26529999  0.59485717  0.62614307    -0.22600
C445        C  0.26829767  0.61148816  0.60832120    -0.22800
C446        C  0.24559688  0.62381008  0.60563698     0.00200
H447        H  0.27966153  0.58254408  0.63314007     0.13900
H448        H  0.28576388  0.61525159  0.59908913     0.14000
Zn449      Zn  0.95916430  0.75425911  0.76466373     1.49700
Zn450      Zn  0.98933404  0.70913138  0.76354071     1.49400
Zn451      Zn  0.98301104  0.74675274  0.71763332     1.49100
Zn452      Zn  0.02079098  0.75670354  0.75891611     1.49500
O453        O  0.98962669  0.74117038  0.75054936    -1.83000
O454        O  0.93968997  0.72962955  0.78185588    -0.73600
O455        O  0.97315200  0.68934917  0.73714769    -0.73400
O456        O  0.96426804  0.78149372  0.71747559    -0.72900
O457        O  0.97308326  0.71366260  0.79831532    -0.73600
O458        O  0.93553361  0.76621984  0.74054526    -0.73200
O459        O  0.97304602  0.71325294  0.70426361    -0.73800
O460        O  0.04112247  0.76605160  0.72857452    -0.73200
O461        O  0.02535066  0.69663233  0.76228769    -0.74000
O462        O  0.01645009  0.74795693  0.70249768    -0.73300
O463        O  0.04616915  0.73052485  0.76975478    -0.73800
O464        O  0.01129992  0.78371034  0.78400990    -0.73700
O465        O  0.96960116  0.78092327  0.78706307    -0.73500
C466        C  0.95130933  0.72378627  0.80059846     0.78300
C467        C  0.97592946  0.69209044  0.71432513     0.78800
C468        C  0.94510018  0.78480443  0.73116174     0.77700
C469        C  0.03793292  0.75502716  0.70863468     0.78100
C470        C  0.04596114  0.70785115  0.76398250     0.79200
C471        C  0.99013887  0.79064872  0.79332702     0.78300
Zn472      Zn  0.89503046  0.85807456  0.90944820     1.49700
Zn473      Zn  0.89894040  0.89886420  0.86774319     1.49400
Zn474      Zn  0.86651285  0.84791370  0.85895235     1.49100
Zn475      Zn  0.84644333  0.89090663  0.89633802     1.49500
O476        O  0.87651694  0.87377605  0.88264087    -1.83000
O477        O  0.93265779  0.86250687  0.90431660    -0.73600
O478        O  0.89555342  0.89545190  0.83083932    -0.73400
O479        O  0.87897038  0.81190101  0.87136554    -0.72900
O480        O  0.93689965  0.89001342  0.87500125    -0.73600
O481        O  0.89136472  0.82056030  0.90852844    -0.73200
O482        O  0.87916773  0.85878892  0.82366708    -0.73800
O483        O  0.81310238  0.87747468  0.88211994    -0.73200
O484        O  0.88815541  0.93517880  0.87906682    -0.74000
O485        O  0.82740599  0.84787687  0.85776678    -0.73300
O486        O  0.84913178  0.92844337  0.89160421    -0.73800
O487        O  0.84633419  0.88814808  0.93331657    -0.73700
O488        O  0.88390828  0.87257014  0.94254645    -0.73500
C489        C  0.94657830  0.87455584  0.88986894     0.78300
C490        C  0.88889431  0.87887211  0.81597214     0.78800
C491        C  0.88714748  0.80481255  0.89208807     0.77700
C492        C  0.80907047  0.86017375  0.86718064     0.78100
C493        C  0.86687181  0.94336090  0.88705648     0.79200
C494        C  0.86325528  0.88313961  0.94884345     0.78300
N495        N  0.85930311  0.89145703  0.97337018    -0.02300
C496        C  0.87311487  0.90880168  0.98470512     0.00300
C497        C  0.85859108  0.92103845  0.00170758    -0.22600
C498        C  0.83554855  0.91075090  0.00165900    -0.22800
C499        C  0.83638181  0.89244057  0.98463874     0.00200
H500        H  0.86458713  0.93520861  0.01381836     0.13900
H501        H  0.82057363  0.91449455  0.01446624     0.14000
N502        N  0.89297153  0.88342503  0.79025785    -0.02300
C503        C  0.91494643  0.87587740  0.77903576     0.00300
C504        C  0.92541421  0.89519055  0.76643312    -0.22600
C505        C  0.90919304  0.91451619  0.76800889    -0.22800
C506        C  0.88922512  0.90691132  0.78172200     0.00200
H507        H  0.94124950  0.89435562  0.75414866     0.13900
H508        H  0.91022194  0.93124799  0.75752208     0.14000
N509        N  0.89309337  0.77900849  0.89733316    -0.02300
C510        C  0.91437746  0.76695750  0.88894827     0.00300
C511        C  0.92401480  0.75115994  0.90619487    -0.22600
C512        C  0.90873642  0.75273930  0.92569520    -0.22800
C513        C  0.88999137  0.76942146  0.92006494     0.00200
H514        H  0.93925764  0.73793998  0.90390827     0.13900
H515        H  0.90986798  0.74128651  0.94160792     0.14000
N516        N  0.78356944  0.85397113  0.86071837    -0.02300
C517        C  0.77277802  0.86003080  0.83915473     0.00300
C518        C  0.75680722  0.84193192  0.83172431    -0.22600
C519        C  0.75719182  0.82420516  0.84875862    -0.22800
C520        C  0.77325719  0.83182216  0.86629592     0.00200
H521        H  0.74446513  0.84252939  0.81638708     0.13900
H522        H  0.74520986  0.80841744  0.84944609     0.14000
N523        N  0.97332972  0.86898093  0.88974351    -0.02300
C524        C  0.98212517  0.84691246  0.88088344     0.00300
C525        C  0.99816667  0.83556833  0.89702857    -0.22600
C526        C  0.00050463  0.85099675  0.91589094    -0.22800
C527        C  0.98617410  0.87163173  0.91073732     0.00200
H528        H  0.00958233  0.81923507  0.89398652     0.13900
H529        H  0.01439594  0.84910386  0.92987872     0.14000
N530        N  0.86250829  0.96944630  0.89240368    -0.02300
C531        C  0.83851184  0.97895285  0.89063465     0.00300
C532        C  0.83144246  0.99181623  0.91084969    -0.22600
C533        C  0.85176310  0.99228981  0.92513033    -0.22800
C534        C  0.87095827  0.97940755  0.91353990     0.00200
H535        H  0.81448710  0.00279953  0.91331335     0.13900
H536        H  0.85328312  0.00421886  0.94051164     0.14000
Zn537      Zn  0.65237946  0.14265665  0.59971286     1.49700
Zn538      Zn  0.60697144  0.14100943  0.63930737     1.49400
Zn539      Zn  0.60938841  0.10005775  0.59850717     1.49100
Zn540      Zn  0.65065377  0.09877268  0.64136513     1.49500
O541        O  0.63022569  0.12043848  0.61965829    -1.83000
O542        O  0.64490337  0.17924408  0.60901813    -0.73600
O543        O  0.57179650  0.14245775  0.62414135    -0.73400
O544        O  0.62136221  0.10683629  0.56446358    -0.72900
O545        O  0.62028433  0.17621458  0.64123096    -0.73600
O546        O  0.65029215  0.13519121  0.56224218    -0.73200
O547        O  0.57136560  0.11107821  0.59880118    -0.73800
O548        O  0.64962721  0.06252630  0.62834717    -0.73200
O549        O  0.60335736  0.12625921  0.67333018    -0.74000
O550        O  0.61683035  0.06218460  0.60384225    -0.73300
O551        O  0.63372763  0.09788937  0.67630624    -0.73800
O552        O  0.68811332  0.11207484  0.64101930    -0.73700
O553        O  0.68949250  0.13828391  0.61016961    -0.73500
C554        C  0.63456441  0.18897580  0.62764638     0.78300
C555        C  0.56019869  0.12951261  0.60880367     0.78800
C556        C  0.63661003  0.11930496  0.55193427     0.77700
C557        C  0.63473274  0.05069714  0.61472653     0.78100
C558        C  0.61463282  0.10940916  0.68545179     0.79200
C559        C  0.70046321  0.12697757  0.62746043     0.78300
N560        N  0.63949459  0.02445637  0.61015228    -0.02300
C561        C  0.63032024  0.01156083  0.59098635     0.00300
C562        C  0.64681938  0.99283730  0.58457858    -0.22600
C563        C  0.66594399  0.99295652  0.60037344    -0.22800
C564        C  0.66107443  0.01178545  0.61643640     0.00200
H565        H  0.64360865  0.97832851  0.57180492     0.13900
H566        H  0.68021259  0.97863958  0.60172326     0.14000
N567        N  0.63985618  0.11290206  0.52653414    -0.02300
C568        C  0.66037603  0.11771432  0.51235398     0.00300
C569        C  0.66458361  0.09871366  0.49620614    -0.22600
C570        C  0.64579492  0.08253919  0.49920681    -0.22800
C571        C  0.63032548  0.09189827  0.51697704     0.00200
H572        H  0.67797852  0.09814429  0.48149124     0.13900
H573        H  0.64209425  0.06712944  0.48764487     0.14000
N574        N  0.60367088  0.10179905  0.70851192    -0.02300
C575        C  0.57971571  0.10858958  0.71517772     0.00300
C576        C  0.56827389  0.09023234  0.72794487    -0.22600
C577        C  0.58559791  0.07194749  0.73067305    -0.22800
C578        C  0.60741849  0.07925668  0.71924710     0.00200
H579        H  0.55034641  0.09146375  0.73717982     0.13900
H580        H  0.58341205  0.05664203  0.74289443     0.14000
N581        N  0.53531889  0.13764927  0.60084539    -0.02300
C582        C  0.52700177  0.16098638  0.60571037     0.00300
C583        C  0.51732125  0.17209734  0.58548373    -0.22600
C584        C  0.51777269  0.15482029  0.56787886    -0.22800
C585        C  0.52731729  0.13331830  0.57790748     0.00200
H586        H  0.50753192  0.18966135  0.58464750     0.13900
H587        H  0.50762247  0.15659061  0.55118800     0.14000
N588        N  0.72651476  0.13278921  0.63299720    -0.02300
C589        C  0.74157736  0.15018469  0.62233241     0.00300
C590        C  0.76169162  0.15516612  0.63689824    -0.22600
C591        C  0.75955167  0.14113894  0.65689059    -0.22800
C592        C  0.73838779  0.12740161  0.65424946     0.00200
H593        H  0.77727834  0.16691459  0.63272973     0.13900
H594        H  0.77331863  0.13944172  0.67101015     0.14000
N595        N  0.64131757  0.21365587  0.63519246    -0.02300
C596        C  0.66437616  0.22336625  0.63071404     0.00300
C597        C  0.67388017  0.23383731  0.65119308    -0.22600
C598        C  0.65545414  0.23301765  0.66821437    -0.22800
C599        C  0.63549045  0.22160956  0.65780044     0.00200
H600        H  0.69079830  0.24437502  0.65241206     0.13900
H601        H  0.65527004  0.24283779  0.68508677     0.14000
Zn602      Zn  0.74839083  0.96781568  0.74136281     1.49700
Zn603      Zn  0.77889745  0.01512932  0.75787163     1.49400
Zn604      Zn  0.72841655  0.01656256  0.73877051     1.49100
Zn605      Zn  0.72928437  0.99904547  0.78743945     1.49500
O606        O  0.74831425  0.99786220  0.75848469    -1.83000
O607        O  0.78473333  0.95593398  0.74113474    -0.73600
O608        O  0.77405605  0.04649615  0.73498239    -0.73400
O609        O  0.70091233  0.99772461  0.72543734    -0.72900
O610        O  0.80615174  0.98929410  0.75030814    -0.73600
O611        O  0.72933591  0.97351940  0.70867051    -0.73200
O612        O  0.74794789  0.02741138  0.71143168    -0.73800
O613        O  0.69545990  0.01877372  0.77983906    -0.73200
O614        O  0.78735067  0.02004364  0.79298683    -0.74000
O615        O  0.71513250  0.04492499  0.75657564    -0.73300
O616        O  0.75214999  0.01182383  0.81314506    -0.73800
O617        O  0.72919723  0.96328187  0.79789422    -0.73700
O618        O  0.73388524  0.94271916  0.76365941    -0.73500
C619        C  0.80501619  0.96599445  0.74759386     0.78300
C620        C  0.76064116  0.04602104  0.71588143     0.78800
C621        C  0.70911282  0.98661090  0.70698183     0.77700
C622        C  0.69507684  0.03813237  0.76649122     0.78100
C623        C  0.77589446  0.01457994  0.81253161     0.79200
C624        C  0.73437939  0.94342275  0.78659086     0.78300
Zn625      Zn  0.74371370  0.24247709  0.46143862     1.49700
Zn626      Zn  0.78853196  0.23546456  0.50088985     1.49400
Zn627      Zn  0.74620405  0.27884937  0.50673053     1.49100
Zn628      Zn  0.73740771  0.22499942  0.51085130     1.49500
O629        O  0.75543717  0.24735625  0.49318211    -1.83000
O630        O  0.77559738  0.23826807  0.44279103    -0.73600
O631        O  0.80737699  0.26481830  0.51111762    -0.73400
O632        O  0.73345355  0.30022208  0.47958734    -0.72900
O633        O  0.80665356  0.22960325  0.46858928    -0.73600
O634        O  0.73250433  0.27599710  0.44748985    -0.73200
O635        O  0.77956687  0.29597133  0.51164040    -0.73800
O636        O  0.73664989  0.23761002  0.54303637    -0.73200
O637        O  0.78598453  0.20895718  0.52888814    -0.74000
O638        O  0.71988475  0.27369719  0.53508485    -0.73300
O639        O  0.75315288  0.19167733  0.51357966    -0.73800
O640        O  0.70360981  0.22313538  0.49758005    -0.73700
O641        O  0.71965719  0.21213398  0.46260706    -0.73500
C642        C  0.79882427  0.23608663  0.44773664     0.78300
C643        C  0.80206702  0.28767497  0.50941487     0.78800
C644        C  0.73276534  0.29744547  0.45680504     0.77700
C645        C  0.72012969  0.25374023  0.54737207     0.78100
C646        C  0.76896110  0.19269402  0.53030464     0.79200
C647        C  0.70436680  0.20837396  0.48015594     0.78300
Zn648      Zn  0.39985015  0.89476719  0.34897900     1.49700
Zn649      Zn  0.35587791  0.90635416  0.38943405     1.49400
Zn650      Zn  0.35497911  0.85622004  0.35896172     1.49100
Zn651      Zn  0.39876032  0.86347941  0.39868430     1.49500
O652        O  0.37743471  0.88029808  0.37404838    -1.83000
O653        O  0.39718673  0.93235317  0.35196059    -0.73600
O654        O  0.31780150  0.90170584  0.38170018    -0.73400
O655        O  0.35698109  0.86042604  0.32233899    -0.72900
O656        O  0.36836126  0.94158789  0.37991220    -0.73600
O657        O  0.38882393  0.88498248  0.31407643    -0.73200
O658        O  0.31777078  0.86292084  0.36926276    -0.73800
O659        O  0.39651903  0.82589920  0.39326673    -0.73200
O660        O  0.35795418  0.90163059  0.42622182    -0.74000
O661        O  0.36644190  0.82025015  0.36644413    -0.73300
O662        O  0.38597546  0.87181877  0.43376477    -0.73800
O663        O  0.43651476  0.87299118  0.39376414    -0.73700
O664        O  0.43766260  0.88621981  0.35580616    -0.73500
C665        C  0.38506049  0.94827424  0.36461976     0.78300
C666        C  0.30587256  0.88237917  0.37610397     0.78800
C667        C  0.37080734  0.87160350  0.30708425     0.77700
C668        C  0.38349330  0.81159734  0.38029760     0.78100
C669        C  0.36952035  0.88757189  0.44119195     0.79200
C670        C  0.44901030  0.88002632  0.37522028     0.78300
N671        N  0.27861334  0.88215001  0.37790700    -0.02300
C672        C  0.26438627  0.86523459  0.38976809     0.00300
C673        C  0.23916236  0.86941509  0.38606371    -0.22600
C674        C  0.23714205  0.88932441  0.37149879    -0.22800
C675        C  0.26118412  0.89688152  0.36657395     0.00200
H676        H  0.22378776  0.85936327  0.39388321     0.13900
H677        H  0.21983116  0.89787837  0.36542420     0.14000
N678        N  0.47627412  0.88150480  0.37635559    -0.02300
C679        C  0.49394544  0.87293885  0.36025555     0.00300
C680        C  0.51783531  0.87898225  0.36701472    -0.22600
C681        C  0.51555620  0.89165418  0.38775234    -0.22800
C682        C  0.49031478  0.89319578  0.39314724     0.00200
H683        H  0.53523988  0.87399674  0.35796720     0.13900
H684        H  0.53071571  0.89946756  0.39779810     0.14000
N685        N  0.36290763  0.88939500  0.46666350    -0.02300
C686        C  0.33969162  0.88099676  0.47307522     0.00300
C687        C  0.32390402  0.90051497  0.47913657    -0.22600
C688        C  0.33859660  0.92042841  0.48141854    -0.22800
C689        C  0.36276439  0.91270103  0.47575444     0.00200
H690        H  0.30518185  0.89926505  0.48664069     0.13900
H691        H  0.33290725  0.93715935  0.49052393     0.14000
N692        N  0.38906425  0.78540385  0.38094027    -0.02300
C693        C  0.38991559  0.77293953  0.40231224     0.00300
C694        C  0.41108908  0.75796547  0.40352445    -0.22600
C695        C  0.42304029  0.75978520  0.38197886    -0.22800
C696        C  0.40893493  0.77584975  0.36820352     0.00200
H697        H  0.41546320  0.74447776  0.41727187     0.13900
H698        H  0.43860459  0.74829871  0.37589542     0.14000
N699        N  0.36497515  0.86930495  0.28174047    -0.02300
C700        C  0.36941781  0.84753580  0.27010465     0.00300
C701        C  0.34868541  0.84052879  0.25735358    -0.22600
C702        C  0.33109333  0.85867776  0.25999631    -0.22800
C703        C  0.34176593  0.87659545  0.27382175     0.00200
H704        H  0.34755365  0.82521056  0.24511704     0.13900
H705        H  0.31339463  0.85989650  0.25067036     0.14000
N706        N  0.39138845  0.97399278  0.36181021    -0.02300
C707        C  0.41483171  0.98046403  0.36880977     0.00300
C708        C  0.42841604  0.98944240  0.34955436    -0.22600
C709        C  0.41213378  0.99188246  0.33092877    -0.22800
C710        C  0.38912954  0.98418412  0.33935420     0.00200
H711        H  0.44670378  0.99763341  0.35028920     0.13900
H712        H  0.41559058  0.00254915  0.31482937     0.14000
Zn713      Zn  0.26307364  0.01170078  0.30115747     1.49700
Zn714      Zn  0.25395229  0.00639593  0.24322808     1.49400
Zn715      Zn  0.21313522  0.01814972  0.28144472     1.49100
Zn716      Zn  0.26171390  0.05499859  0.27144647     1.49500
O717        O  0.24714790  0.02353306  0.27247717    -1.83000
O718        O  0.28348027  0.98198779  0.29180981    -0.73600
O719        O  0.22101990  0.99720889  0.22722378    -0.73400
O720        O  0.21520603  0.98469084  0.30073689    -0.72900
O721        O  0.27871247  0.97784065  0.25215095    -0.73600
O722        O  0.23846407  0.00387723  0.32583549    -0.73200
O723        O  0.19352717  0.01690116  0.25064501    -0.73800
O724        O  0.23543420  0.07621988  0.28875417    -0.73200
O725        O  0.26410664  0.03111791  0.21730898    -0.74000
O726        O  0.20416560  0.05085622  0.29714001    -0.73300
O727        O  0.25907220  0.06585933  0.23744849    -0.73800
O728        O  0.29900805  0.04946068  0.28314274    -0.73700
O729        O  0.28401588  0.03567764  0.31688719    -0.73500
C730        C  0.28826841  0.97063439  0.27225803     0.78300
C731        C  0.19964659  0.00788544  0.23029630     0.78800
C732        C  0.22946269  0.98400444  0.31906091     0.77700
C733        C  0.21215449  0.07083939  0.28779904     0.78100
C734        C  0.25941037  0.05421974  0.21768887     0.79200
C735        C  0.30277751  0.03986518  0.30382350     0.78300
Zn736      Zn  0.14595133  0.10112128  0.10538525     1.49700
Zn737      Zn  0.14492642  0.14594289  0.14448759     1.49400
Zn738      Zn  0.10360138  0.14445125  0.09997848     1.49100
Zn739      Zn  0.10044650  0.10504070  0.14421274     1.49500
O740        O  0.12377081  0.12438766  0.12361724    -1.83000
O741        O  0.18319822  0.10887126  0.11022976    -0.73600
O742        O  0.13581469  0.18279974  0.13719819    -0.73400
O743        O  0.11333920  0.13619279  0.06422932    -0.72900
O744        O  0.18326428  0.13990530  0.13612022    -0.73600
O745        O  0.14029571  0.10500269  0.06918933    -0.73200
O746        O  0.11042715  0.18113940  0.10560657    -0.73800
O747        O  0.06329324  0.11319557  0.13634270    -0.75600
O748        O  0.13818109  0.13850885  0.18144164    -0.74000
O749        O  0.06516248  0.13920888  0.10547382    -0.73300
O750        O  0.10632803  0.11281984  0.17977488    -0.73800
O751        O  0.10706229  0.06748214  0.14035310    -0.73700
O752        O  0.13963961  0.06504176  0.11518044    -0.73500
C753        C  0.19506751  0.12469380  0.12230936     0.78300
C754        C  0.12261471  0.19352260  0.12093841     0.78800
C755        C  0.12804137  0.11964628  0.05537752     0.77700
C756        C  0.05235543  0.12677120  0.12066840     0.78100
C757        C  0.12175178  0.12526210  0.19205366     0.79200
C758        C  0.12344343  0.05470069  0.12871678     0.78300
N759        N  0.13255545  0.11817366  0.02956171    -0.02300
C760        C  0.15390850  0.12923335  0.02174313     0.00300
C761        C  0.17105909  0.11181372  0.01356756    -0.22600
C762        C  0.15865036  0.09031987  0.01206522    -0.22800
C763        C  0.13436428  0.09509235  0.02004048     0.00200
H764        H  0.18851820  0.11547353  0.00426693     0.13900
H765        H  0.16545067  0.07465653  0.00188784     0.14000
N766        N  0.12392010  0.02818370  0.13108319    -0.02300
C767        C  0.13707580  0.01431208  0.14743795     0.00300
C768        C  0.13371178  0.98963949  0.14363032    -0.22600
C769        C  0.11803130  0.98776058  0.12459997    -0.22800
C770        C  0.11210039  0.01134417  0.11712504     0.00200
H771        H  0.14174880  0.97455588  0.15388298     0.13900
H772        H  0.11137906  0.97086721  0.11700768     0.14000
N773        N  0.02511994  0.12803698  0.12011470    -0.02300
C774        C  0.00957606  0.11588242  0.10491641     0.00300
C775        C  0.98484096  0.12233173  0.10922958    -0.22600
C776        C  0.98454542  0.13875642  0.12753962    -0.22800
C777        C  0.00912930  0.14211593  0.13410027     0.00200
H778        H  0.96861333  0.11542957  0.10010249     0.13900
H779        H  0.96800058  0.14727841  0.13554353     0.14000
N780        N  0.12155887  0.12232284  0.21815177    -0.02300
C781        C  0.13394958  0.10170613  0.22600167     0.00300
C782        C  0.11732897  0.08521199  0.23566745    -0.22600
C783        C  0.09513449  0.09756689  0.23838192    -0.22800
C784        C  0.09856550  0.12096634  0.22925473     0.00200
H785        H  0.12229495  0.06860063  0.24539924     0.13900
H786        H  0.08051086  0.09159636  0.25048455     0.14000
N787        N  0.12067789  0.22009815  0.12007751    -0.02300
C788        C  0.12687231  0.23514032  0.10130846     0.00300
C789        C  0.11726909  0.25856815  0.10467687    -0.22600
C790        C  0.10471760  0.25845890  0.12601556    -0.22800
C791        C  0.10694364  0.23496084  0.13510432     0.00200
H792        H  0.12011263  0.27436398  0.09319058     0.13900
H793        H  0.09511037  0.27396450  0.13430328     0.14000
N794        N  0.22225745  0.12493289  0.12046416    -0.02300
C795        C  0.23894382  0.11126718  0.13370714     0.00300
C796        C  0.26308039  0.11363225  0.12504847    -0.22600
C797        C  0.26175279  0.12876199  0.10564104    -0.22800
C798        C  0.23685326  0.13538045  0.10291153     0.00200
H799        H  0.27992582  0.10504929  0.13216382     0.13900
H800        H  0.27736276  0.13447163  0.09453546     0.14000
Zn801      Zn  0.89988719  0.36088213  0.35280498     1.49700
Zn802      Zn  0.89900461  0.40153143  0.39431054     1.49400
Zn803      Zn  0.85438765  0.40255565  0.35343897     1.49100
Zn804      Zn  0.85619516  0.35892272  0.39379841     1.49500
O805        O  0.87717621  0.38122569  0.37367146    -1.83000
O806        O  0.93800992  0.36825245  0.35700714    -0.73600
O807        O  0.88468837  0.43782955  0.39442006    -0.73400
O808        O  0.86568908  0.40178630  0.31652416    -0.72900
O809        O  0.93609398  0.40117568  0.38039390    -0.73600
O810        O  0.89427001  0.37192867  0.31853945    -0.73200
O811        O  0.85683692  0.43887512  0.36490081    -0.73800
O812        O  0.81763973  0.36830970  0.39220709    -0.73200
O813        O  0.89966144  0.38641954  0.42908420    -0.74000
O814        O  0.81682728  0.39260493  0.36006647    -0.73300
O815        O  0.86961649  0.35858085  0.42885215    -0.73800
O816        O  0.86008022  0.32363796  0.38055834    -0.73700
O817        O  0.89162512  0.32384166  0.35419884    -0.73500
C818        C  0.94875868  0.38664640  0.36647411     0.78300
C819        C  0.86891515  0.44987505  0.38136398     0.78800
C820        C  0.88251810  0.38811609  0.30630043     0.77700
C821        C  0.80511498  0.38096611  0.37673994     0.78100
C822        C  0.88717383  0.36962355  0.43981426     0.79200
C823        C  0.87430493  0.31236581  0.36536898     0.78300
N824        N  0.89117017  0.39258112  0.28163963    -0.02300
C825        C  0.91249601  0.38165735  0.27226427     0.00300
C826        C  0.92469201  0.39715026  0.25673062    -0.22600
C827        C  0.91035601  0.41797134  0.25532104    -0.22800
C828        C  0.88947398  0.41472056  0.26988693     0.00200
H829        H  0.94108364  0.39279659  0.24583943     0.13900
H830        H  0.91308904  0.43242937  0.24222006     0.14000
N831        N  0.86891458  0.28708943  0.35899173    -0.02300
C832        C  0.87412169  0.27827879  0.33651237     0.00300
C833        C  0.85310150  0.26720368  0.32733570    -0.22600
C834        C  0.83582003  0.26630424  0.34547830    -0.22800
C835        C  0.84649753  0.27719420  0.36507760     0.00200
H836        H  0.85218651  0.25638388  0.31111360     0.13900
H837        H  0.81934510  0.25504113  0.34563926     0.14000
N838        N  0.97446301  0.39275613  0.35911131    -0.02300
C839        C  0.98437863  0.38461669  0.33751850     0.00300
C840        C  0.99347417  0.40421134  0.32437640    -0.22600
C841        C  0.99179560  0.42427482  0.33865441    -0.22800
C842        C  0.98179273  0.41673251  0.36031300     0.00200
H843        H  0.00415483  0.40348624  0.30776815     0.13900
H844        H  0.00107305  0.44140878  0.33508222     0.14000
N845        N  0.89449990  0.36126660  0.46378562    -0.02300
C846        C  0.88508090  0.34156494  0.47596060     0.00300
C847        C  0.90140335  0.33308358  0.49329537    -0.22600
C848        C  0.92148063  0.34787051  0.49254077    -0.22800
C849        C  0.91695503  0.36515098  0.47480345     0.00200
H850        H  0.89817896  0.31856692  0.50623033     0.13900
H851        H  0.93687472  0.34743777  0.50509168     0.14000
N852        N  0.86450034  0.47620524  0.38522686    -0.02300
C853        C  0.85024447  0.49219701  0.37150418     0.00300
C854        C  0.84996595  0.51552154  0.38083813    -0.22600
C855        C  0.86420446  0.51471391  0.40077785    -0.22800
C856        C  0.87269196  0.49075304  0.40366083     0.00200
H857        H  0.84073948  0.53167680  0.37340491     0.13900
H858        H  0.86833787  0.53028329  0.41198502     0.14000
N859        N  0.77775600  0.38425913  0.37943007    -0.02300
C860        C  0.76427832  0.40225733  0.36759915     0.00300
C861        C  0.74633800  0.41286304  0.38240016    -0.22600
C862        C  0.74693144  0.40017790  0.40339853    -0.22800
C863        C  0.76527086  0.38201951  0.40107451     0.00200
H864        H  0.73219060  0.42638624  0.37733043     0.13900
H865        H  0.73279658  0.40164274  0.41743582     0.14000
Zn866      Zn  0.00081949  0.25408662  0.23890975     1.49700
Zn867      Zn  0.00208979  0.20924645  0.27185782     1.49400
Zn868      Zn  0.04669872  0.25061889  0.27483267     1.49100
Zn869      Zn  0.99812659  0.25464594  0.29802737     1.49500
O870        O  0.01304514  0.24201113  0.26912133    -1.83000
O871        O  0.99028994  0.22530659  0.21748436    -0.73600
O872        O  0.02874518  0.19577366  0.29362451    -0.73400
O873        O  0.06248713  0.24997731  0.24207586    -0.72900
O874        O  0.00522444  0.19402863  0.23882412    -0.73600
O875        O  0.03135153  0.26295045  0.21859808    -0.73200
O876        O  0.06180263  0.21967047  0.29047929    -0.73800
O877        O  0.02006812  0.27250741  0.32008890    -0.73200
O878        O  0.96563462  0.21309603  0.28488598    -0.74000
O879        O  0.04389655  0.28583021  0.29089022    -0.73300
O880        O  0.98240169  0.22858313  0.31667053    -0.73800
O881        O  0.97295246  0.27866925  0.28687064    -0.73700
O882        O  0.97395945  0.28177802  0.24687910    -0.73500
C883        C  0.99898762  0.20324437  0.21858479     0.78300
C884        C  0.05163732  0.19877165  0.28742634     0.78800
C885        C  0.05370630  0.25444067  0.22128774     0.77700
C886        C  0.03047300  0.29024417  0.30968313     0.78100
C887        C  0.96295290  0.22392255  0.30504120     0.79200
C888        C  0.96538617  0.28873356  0.26756700     0.78300
C889        C  0.99447752  0.35915719  0.33152326     0.01000
C890        C  0.99954783  0.35374865  0.30709259    -0.10900
C891        C  0.01356678  0.33289607  0.29989687     0.03200
C892        C  0.02216894  0.31565511  0.31709878     0.00900
C893        C  0.01676191  0.32061310  0.34154367    -0.10800
C894        C  0.00353111  0.34215191  0.34885447     0.03100
H895        H  0.99262423  0.36612336  0.29325186     0.16100
H896        H  0.02252597  0.30730564  0.35504768     0.16100
C897        C  0.99971014  0.34622732  0.37422377     0.37700
C898        C  0.01772797  0.32916238  0.27448304     0.37700
N899        N  0.99667640  0.34930417  0.39461927    -0.42600
N900        N  0.02111775  0.32631262  0.25410381    -0.42600
C901        C  0.89911790  0.26793440  0.32879195     0.01000
C902        C  0.90285313  0.26284238  0.30418631    -0.10900
C903        C  0.92212352  0.24693242  0.29615607     0.03200
C904        C  0.93915835  0.23645110  0.31276066     0.00900
C905        C  0.93621401  0.24250743  0.33720829    -0.10800
C906        C  0.91648679  0.25779881  0.34535352     0.03100
H907        H  0.88983233  0.27049026  0.29116958     0.16100
H908        H  0.94951148  0.23519339  0.35015361     0.16100
C909        C  0.91418659  0.26170989  0.37092444     0.37700
C910        C  0.92406830  0.24213429  0.27070644     0.37700
N911        N  0.91247827  0.26462612  0.39146726    -0.42600
N912        N  0.92548084  0.23830131  0.25029313    -0.42600
C913        C  0.92001239  0.35519953  0.27312268     0.01000
C914        C  0.93291771  0.34592602  0.29302289    -0.10900
C915        C  0.94466597  0.32281653  0.29240504     0.03200
C916        C  0.94743642  0.31002073  0.27021653     0.00900
C917        C  0.93408677  0.31901709  0.25033078    -0.10800
C918        C  0.91971275  0.34086810  0.25193731     0.03100
H919        H  0.93490236  0.35704109  0.30891247     0.16100
H920        H  0.93502665  0.30914409  0.23346650     0.16100
C921        C  0.90561242  0.34887963  0.23121722     0.37700
C922        C  0.95359011  0.31311334  0.31504140     0.37700
N923        N  0.89414226  0.35528661  0.21471403    -0.42600
N924        N  0.96014052  0.30511259  0.33328046    -0.42600
C925        C  0.09499861  0.22927732  0.15840856     0.01000
C926        C  0.10801325  0.23628997  0.17900132    -0.10900
C927        C  0.09516915  0.24481138  0.19959037     0.03200
C928        C  0.06864828  0.24651549  0.19978353     0.00900
C929        C  0.05573956  0.23741544  0.17985585    -0.10800
C930        C  0.06864897  0.22868219  0.15946073     0.03100
H931        H  0.12824745  0.23752764  0.17811038     0.16100
H932        H  0.03548035  0.23743639  0.18003809     0.16100
C933        C  0.05454274  0.22137191  0.13874547     0.37700
C934        C  0.10980220  0.25345524  0.21941076     0.37700
N935        N  0.04352492  0.21555260  0.12195866    -0.42600
N936        N  0.12163607  0.26041857  0.23521729    -0.42600
C937        C  0.06462288  0.17914582  0.27274884     0.01000
C938        C  0.05026033  0.15956977  0.26454110    -0.10900
C939        C  0.06032952  0.14146429  0.24928852     0.03200
C940        C  0.08570190  0.14233755  0.24154854     0.00900
C941        C  0.10003757  0.16217527  0.24929744    -0.10800
C942        C  0.08990055  0.18030522  0.26480032     0.03100
H943        H  0.03075211  0.15830523  0.26994554     0.16100
H944        H  0.11964146  0.16297401  0.24413734     0.16100
C945        C  0.10625351  0.19928981  0.27286789     0.37700
C946        C  0.04393297  0.12197839  0.24245631     0.37700
N947        N  0.11940557  0.21443739  0.27944570    -0.42600
N948        N  0.03052294  0.10636244  0.23762895    -0.42600
C949        C  0.01434476  0.15913213  0.15431626     0.01000
C950        C  0.00402150  0.18300915  0.15237812    -0.10900
C951        C  0.99829493  0.19739275  0.17267726     0.03200
C952        C  0.00350534  0.18834323  0.19606292     0.00900
C953        C  0.01496851  0.16479633  0.19787826    -0.10800
C954        C  0.02002701  0.15017899  0.17745929     0.03100
H955        H  0.99843793  0.18972870  0.13480503     0.16100
H956        H  0.01926987  0.15735456  0.21542461     0.16100
C957        C  0.02891445  0.12525094  0.18081380     0.37700
C958        C  0.98580470  0.22075965  0.16866968     0.37700
N959        N  0.03591198  0.10518801  0.18334394    -0.42600
N960        N  0.97567458  0.23940181  0.16527836    -0.42600
C961        C  0.18278031  0.01209289  0.20918045     0.01000
C962        C  0.19370528  0.01387371  0.18612805    -0.10900
C963        C  0.17918031  0.01894706  0.16570129     0.03200
C964        C  0.15294168  0.02199050  0.16775025     0.00900
C965        C  0.14210166  0.02161439  0.19087125    -0.10800
C966        C  0.15665717  0.01692640  0.21145523     0.03100
H967        H  0.21377869  0.01121017  0.18397026     0.16100
H968        H  0.12185499  0.02299771  0.19267162     0.16100
C969        C  0.14392594  0.01554665  0.23440191     0.37700
C970        C  0.19144607  0.01980249  0.14249410     0.37700
N971        N  0.13366796  0.01440773  0.25277558    -0.42600
N972        N  0.20129976  0.02064087  0.12390695    -0.42600
C973        C  0.19553941  0.08454760  0.27085896     0.01000
C974        C  0.19669248  0.07842850  0.24631053    -0.10900
C975        C  0.17849788  0.08723035  0.23015051     0.03200
C976        C  0.15850740  0.10216665  0.23844202     0.00900
C977        C  0.15874122  0.11027554  0.26248532    -0.10800
C978        C  0.17689073  0.10140116  0.27871794     0.03100
H979        H  0.21084054  0.06543487  0.24002640     0.16100
H980        H  0.14321906  0.12152479  0.26918494     0.16100
C981        C  0.17499699  0.10849522  0.30362886     0.37700
C982        C  0.17956571  0.07959516  0.20537134     0.37700
N983        N  0.17341618  0.11420258  0.32360216    -0.42600
N984        N  0.18021659  0.07403537  0.18533342    -0.42600
C985        C  0.25158059  0.06787438  0.19543228     0.01000
C986        C  0.24208964  0.09215453  0.19786249    -0.10900
C987        C  0.23364851  0.10581117  0.17798574     0.03200
C988        C  0.23455112  0.09542072  0.15490919     0.00900
C989        C  0.24207704  0.07067522  0.15263381    -0.10800
C990        C  0.25064355  0.05693822  0.17242243     0.03100
H991        H  0.24150036  0.10082320  0.21536384     0.16100
H992        H  0.24343708  0.06270170  0.13482053     0.16100
C993        C  0.25949922  0.03216622  0.16805638     0.37700
C994        C  0.22562358  0.13099311  0.18149814     0.37700
N995        N  0.26652450  0.01230365  0.16439289    -0.42600
N996        N  0.21908169  0.15112842  0.18444195    -0.42600
C997        C  0.36616010  0.99765092  0.33053860     0.01000
C998        C  0.36269266  0.00051023  0.30556248    -0.10900
C999        C  0.34357713  0.01588727  0.29619208     0.03200
C1000       C  0.32728367  0.02903786  0.31188361     0.00900
C1001       C  0.33115950  0.02658399  0.33680293    -0.10800
C1002       C  0.35021554  0.01129224  0.34616671     0.03100
H1003       H  0.37507102  0.99063032  0.29324701     0.16100
H1004       H  0.31866778  0.03624461  0.34919030     0.16100
C1005       C  0.35324635  0.01059485  0.37191640     0.37700
C1006       C  0.34037440  0.01678612  0.27047445     0.37700
N1007       N  0.35563454  0.01011820  0.39256622    -0.42600
N1008       N  0.33784514  0.01746293  0.24984540    -0.42600
C1009       C  0.33159794  0.90234480  0.27345605     0.01000
C1010       C  0.32777304  0.91541497  0.29483317    -0.10900
C1011       C  0.31507514  0.93829311  0.29485852     0.03200
C1012       C  0.30482343  0.94809658  0.27317000     0.00900
C1013       C  0.31003538  0.93555296  0.25171532    -0.10800
C1014       C  0.32362172  0.91335992  0.25158820     0.03100
H1015       H  0.33415182  0.90757555  0.31168341     0.16100
H1016       H  0.30339367  0.94301821  0.23478376     0.16100
C1017       C  0.32939895  0.90252900  0.22847872     0.37700
C1018       C  0.31344097  0.95118720  0.31744506     0.37700
N1019       N  0.33398394  0.89393991  0.20992973    -0.42600
N1020       N  0.31261323  0.96153695  0.33555724    -0.42600
C1021       C  0.26414054  0.91928968  0.35179157     0.01000
C1022       C  0.25480598  0.91821192  0.32821391    -0.10900
C1023       C  0.24286023  0.93860341  0.31732445     0.03200
C1024       C  0.24002752  0.96090433  0.33004335     0.00900
C1025       C  0.25153081  0.96248428  0.35274165    -0.10800
C1026       C  0.26355448  0.94212990  0.36347149     0.03100
H1027       H  0.25476617  0.90065465  0.31911088     0.16100
H1028       H  0.25082099  0.97968944  0.36245337     0.16100
C1029       C  0.27374447  0.94466496  0.38725960     0.37700
C1030       C  0.23378030  0.93597187  0.29315011     0.37700
N1031       N  0.28209565  0.94676836  0.40624329    -0.42600
N1032       N  0.22665225  0.93377262  0.27371328    -0.42600
C1033       C  0.81625396  0.24687969  0.42989405     0.01000
C1034       C  0.83202124  0.23227576  0.41545757    -0.10900
C1035       C  0.84424744  0.24254378  0.39538504     0.03200
C1036       C  0.84039014  0.26770409  0.38941850     0.00900
C1037       C  0.82616506  0.28249837  0.40489412    -0.10800
C1038       C  0.81447046  0.27241921  0.42508782     0.03100
H1039       H  0.83372944  0.21276980  0.41904880     0.16100
H1040       H  0.82293311  0.30168572  0.40053332     0.16100
C1041       C  0.80038781  0.28889282  0.44044802     0.37700
C1042       C  0.85944724  0.22658943  0.38031320     0.37700
N1043       N  0.78993878  0.30264640  0.45289132    -0.42600
N1044       N  0.87161102  0.21380081  0.36821012    -0.42600
C1045       C  0.82212088  0.30375966  0.49960116     0.01000
C1046       C  0.83939809  0.29280432  0.48336344    -0.10900
C1047       C  0.85721229  0.30655797  0.47102386     0.03200
C1048       C  0.85950567  0.33168323  0.47587133     0.00900
C1049       C  0.84140305  0.34315629  0.49084117    -0.10800
C1050       C  0.82249538  0.32952559  0.50231892     0.03100
H1051       H  0.83863987  0.27332186  0.47966171     0.16100
H1052       H  0.84333841  0.36238534  0.49521784     0.16100
C1053       C  0.80482550  0.34218219  0.51787217     0.37700
C1054       C  0.87427576  0.29415150  0.45459990     0.37700
N1055       N  0.79066440  0.35241240  0.53032127    -0.42600
N1056       N  0.88782212  0.28421223  0.44133961    -0.42600
C1057       C  0.73771800  0.31971805  0.44131298     0.01000
C1058       C  0.74632546  0.34089869  0.45290403    -0.10900
C1059       C  0.75785534  0.35995010  0.44021669     0.03200
C1060       C  0.76081474  0.35887386  0.41496358     0.00900
C1061       C  0.75146682  0.33826001  0.40306392    -0.10800
C1062       C  0.74000900  0.31890534  0.41586930     0.03100
H1063       H  0.74513450  0.34229376  0.47230866     0.16100
H1064       H  0.75194867  0.33784259  0.38358645     0.16100
C1065       C  0.72994500  0.29894649  0.40229978     0.37700
C1066       C  0.76600218  0.38093679  0.45363357     0.37700
N1067       N  0.72165141  0.28306581  0.39138369    -0.42600
N1068       N  0.77231859  0.39779909  0.46440730    -0.42600
C1069       C  0.67351676  0.23192681  0.60681851     0.01000
C1070       C  0.68289748  0.21475713  0.59049899    -0.10900
C1071       C  0.69517132  0.22209030  0.56960867     0.03200
C1072       C  0.70109692  0.24715063  0.56581830     0.00900
C1073       C  0.69069380  0.26468226  0.58142247    -0.10800
C1074       C  0.67654329  0.25732004  0.60156706     0.03100
H1075       H  0.68210625  0.19538538  0.59447064     0.16100
H1076       H  0.69445202  0.28394405  0.57850441     0.16100
C1077       C  0.66633638  0.27621632  0.61713619     0.37700
C1078       C  0.70129690  0.20299539  0.55255627     0.37700
N1079       N  0.65830813  0.29140559  0.62964580    -0.42600
N1080       N  0.70552127  0.18702132  0.53945241    -0.42600
C1081       C  0.74161547  0.16118558  0.59748736     0.01000
C1082       C  0.74501344  0.14606928  0.57719787    -0.10900
C1083       C  0.75477689  0.15547166  0.55526855     0.03200
C1084       C  0.76280201  0.18009635  0.55363986     0.00900
C1085       C  0.75922687  0.19503645  0.57388821    -0.10800
C1086       C  0.74779303  0.18627726  0.59496555     0.03100
H1087       H  0.74122971  0.12666598  0.57878581     0.16100
H1088       H  0.76430924  0.21416879  0.57293059     0.16100
C1089       C  0.74313758  0.20349509  0.61426198     0.37700
C1090       C  0.75739543  0.13922852  0.53498734     0.37700
N1091       N  0.73936394  0.21736043  0.62962565    -0.42600
N1092       N  0.75953984  0.12608677  0.51879235    -0.42600
C1093       C  0.73626675  0.10528146  0.66965546     0.01000
C1094       C  0.74512302  0.08308354  0.65987680    -0.10900
C1095       C  0.75495838  0.06437866  0.67464750     0.03200
C1096       C  0.75597284  0.06745739  0.69987793     0.00900
C1097       C  0.74580752  0.08913991  0.70979897    -0.10800
C1098       C  0.73604205  0.10791049  0.69496794     0.03100
H1099       H  0.74639097  0.08116789  0.64050875     0.16100
H1100       H  0.74500807  0.09122306  0.72916236     0.16100
C1101       C  0.72683280  0.13033063  0.70595315     0.37700
C1102       C  0.76521488  0.04259429  0.66332903     0.37700
N1103       N  0.71945349  0.14834714  0.71465057    -0.42600
N1104       N  0.77369039  0.02527770  0.65418444    -0.42600
C1105       C  0.63172215  0.06857439  0.72815826     0.01000
C1106       C  0.64979183  0.08422763  0.73750616    -0.10900
C1107       C  0.66958770  0.07498710  0.75174968     0.03200
C1108       C  0.67149541  0.04960649  0.75728408     0.00900
C1109       C  0.65353725  0.03402912  0.74790263    -0.10800
C1110       C  0.63414741  0.04306619  0.73329827     0.03100
H1111       H  0.64787554  0.10385155  0.73456469     0.16100
H1112       H  0.65533485  0.01441418  0.75101823     0.16100
C1113       C  0.61675742  0.02552092  0.72409829     0.37700
C1114       C  0.68742181  0.09202862  0.76102410     0.37700
N1115       N  0.60277417  0.01131768  0.71710253    -0.42600
N1116       N  0.70164847  0.10572403  0.76852029    -0.42600
C1117       C  0.67138325  0.14215807  0.50656913     0.01000
C1118       C  0.69582765  0.14207823  0.49667826    -0.10900
C1119       C  0.70548929  0.16256821  0.48478614     0.03200
C1120       C  0.69147097  0.18475437  0.48402530     0.00900
C1121       C  0.66720568  0.18516765  0.49425335    -0.10800
C1122       C  0.65685390  0.16406965  0.50481491     0.03100
H1123       H  0.70727220  0.12542715  0.49744847     0.16100
H1124       H  0.65642102  0.20224256  0.49432186     0.16100
C1125       C  0.63106636  0.16532418  0.51276838     0.37700
C1126       C  0.73029503  0.16042805  0.47430839     0.37700
N1127       N  0.61032619  0.16645725  0.51898991    -0.42600
N1128       N  0.75013624  0.15844545  0.46588337    -0.42600
C1129       C  0.67402157  0.01076172  0.64034477     0.01000
C1130       C  0.69903012  0.00169620  0.64058476    -0.10900
C1131       C  0.71003374  0.99186968  0.66142138     0.03200
C1132       C  0.69681401  0.99258876  0.68349254     0.00900
C1133       C  0.67239753  0.00314287  0.68365046    -0.10800
C1134       C  0.66085752  0.01173439  0.66245786     0.03100
H1135       H  0.70962448  0.00075965  0.62386965     0.16100
H1136       H  0.66199692  0.00429687  0.70043813     0.16100
C1137       C  0.63514506  0.02028563  0.66382956     0.37700
C1138       C  0.73469352  0.98065955  0.65931674     0.37700
N1139       N  0.61455332  0.02729950  0.66482061    -0.42600
N1140       N  0.75431342  0.97137545  0.65754217    -0.42600
C1141       C  0.79139031  0.00699837  0.83386754     0.01000
C1142       C  0.81737762  0.01119236  0.83341377    -0.10900
C1143       C  0.83358580  0.00058605  0.85055084     0.03200
C1144       C  0.82429844  0.98433444  0.86819813     0.00900
C1145       C  0.79842745  0.98000884  0.86865622    -0.10800
C1146       C  0.78199840  0.99141191  0.85226729     0.03100
H1147       H  0.82515725  0.02305752  0.81968714     0.16100
H1148       H  0.79077493  0.96872510  0.88294950     0.16100
C1149       C  0.75556927  0.98700598  0.85539880     0.37700
C1150       C  0.85920164  0.00848928  0.85080421     0.37700
N1151       N  0.73439808  0.98363013  0.85820736    -0.42600
N1152       N  0.87954457  0.01541559  0.85086466    -0.42600
C1153       C  0.77105332  0.88434227  0.82684273     0.01000
C1154       C  0.76963673  0.88353221  0.80164158    -0.10900
C1155       C  0.75619270  0.90127625  0.78852552     0.03200
C1156       C  0.74515047  0.92189843  0.80029196     0.00900
C1157       C  0.74871768  0.92387169  0.82533614    -0.10800
C1158       C  0.76135424  0.90541459  0.83858550     0.03100
H1159       H  0.77682181  0.86736357  0.79234142     0.16100
H1160       H  0.74140839  0.93981452  0.83477075     0.16100
C1161       C  0.76348949  0.90846310  0.86420133     0.37700
C1162       C  0.75298826  0.89669390  0.76321599     0.37700
N1163       N  0.76536009  0.91162926  0.88465008    -0.42600
N1164       N  0.75017193  0.89269147  0.74302431    -0.42600
C1165       C  0.86469620  0.92002863  0.77815874     0.01000
C1166       C  0.84732322  0.90982059  0.76241742    -0.10900
C1167       C  0.82865761  0.92445391  0.75119075     0.03200
C1168       C  0.82663950  0.95000272  0.75592245     0.00900
C1169       C  0.84363303  0.95989896  0.77235928    -0.10800
C1170       C  0.86246473  0.94536811  0.78317195     0.03100
H1171       H  0.84957047  0.89070567  0.75738011     0.16100
H1172       H  0.84225620  0.97918664  0.77696009     0.16100
C1173       C  0.88022218  0.95715566  0.79854918     0.37700
C1174       C  0.81309292  0.91297771  0.73359964     0.37700
N1175       N  0.89458906  0.96660228  0.81070719    -0.42600
N1176       N  0.80090461  0.90376337  0.71925254    -0.42600
C1177       C  0.98862417  0.80975155  0.81270317     0.01000
C1178       C  0.96476234  0.81712000  0.82152481    -0.10900
C1179       C  0.96191319  0.83133071  0.84239775     0.03200
C1180       C  0.98306772  0.83897650  0.85503858     0.00900
C1181       C  0.00687989  0.83386638  0.84475682    -0.10800
C1182       C  0.00987284  0.81934898  0.82407013     0.03100
H1183       H  0.94801216  0.81077623  0.81279512     0.16100
H1184       H  0.02349012  0.83993243  0.85392505     0.16100
C1185       C  0.03506421  0.81356897  0.81597323     0.37700
C1186       C  0.93700670  0.83662383  0.85088027     0.37700
N1187       N  0.05528220  0.80890665  0.80954875    -0.42600
N1188       N  0.91684211  0.84122059  0.85725833    -0.42600
C1189       C  0.93724870  0.80914724  0.74155081     0.01000
C1190       C  0.91218811  0.81257030  0.74947075    -0.10900
C1191       C  0.90452531  0.83292720  0.76354367     0.03200
C1192       C  0.92219816  0.85034408  0.77074365     0.00900
C1193       C  0.94753083  0.84594621  0.76404661    -0.10800
C1194       C  0.95498866  0.82624048  0.74921253     0.03100
H1195       H  0.89841727  0.79912030  0.74466411     0.16100
H1196       H  0.96161881  0.85877138  0.76958786     0.16100
C1197       C  0.98119182  0.82371382  0.74278935     0.37700
C1198       C  0.87831449  0.83568510  0.76967257     0.37700
N1199       N  0.00220736  0.82178522  0.73767983    -0.42600
N1200       N  0.85725678  0.83768642  0.77458103    -0.42600
C1201       C  0.94135806  0.73416078  0.82370559     0.01000
C1202       C  0.95759268  0.74727690  0.83829535    -0.10900
C1203       C  0.94851492  0.76109348  0.85790793     0.03200
C1204       C  0.92252456  0.76228331  0.86355873     0.00900
C1205       C  0.90613477  0.74995513  0.84837172    -0.10800
C1206       C  0.91525707  0.73601676  0.82871430     0.03100
H1207       H  0.97750879  0.74700884  0.83420176     0.16100
H1208       H  0.88635407  0.74958621  0.85296311     0.16100
C1209       C  0.89751704  0.72257946  0.81473790     0.37700
C1210       C  0.96659260  0.77237605  0.87321809     0.37700
N1211       N  0.88331122  0.71166871  0.80364728    -0.42600
N1212       N  0.98120062  0.78091617  0.88572383    -0.42600
C1213       C  0.11097411  0.67318654  0.72974921     0.01000
C1214       C  0.09442703  0.65895277  0.74352356    -0.10900
C1215       C  0.07382271  0.66980179  0.75587339     0.03200
C1216       C  0.06960571  0.69552752  0.75501048     0.00900
C1217       C  0.08615052  0.70961524  0.74105356    -0.10800
C1218       C  0.10615414  0.69871288  0.72816430     0.03100
H1219       H  0.09839723  0.63952196  0.74578853     0.16100
H1220       H  0.08282131  0.72921304  0.73928070     0.16100
C1221       C  0.12175748  0.71415137  0.71339289     0.37700
C1222       C  0.05817468  0.65429207  0.77043550     0.37700
N1223       N  0.13427599  0.72638659  0.70144936    -0.42600
N1224       N  0.04580663  0.64182725  0.78228706    -0.42600
C1225       C  0.09063207  0.73350182  0.65368552     0.01000
C1226       C  0.07528191  0.71625170  0.66463910    -0.10900
C1227       C  0.06056202  0.72261398  0.68460804     0.03200
C1228       C  0.05920804  0.74714281  0.69286697     0.00900
C1229       C  0.07660128  0.76370674  0.68387633    -0.10800
C1230       C  0.09272249  0.75681372  0.66478622     0.03100
H1231       H  0.07333089  0.69825945  0.65683852     0.16100
H1232       H  0.07676601  0.78224529  0.69083310     0.16100
C1233       C  0.11061497  0.77436671  0.65633721     0.37700
C1234       C  0.04778924  0.70328178  0.69696609     0.37700
N1235       N  0.12519745  0.78861967  0.65037976    -0.42600
N1236       N  0.03886916  0.68737002  0.70751406    -0.42600
C1237       C  0.01638809  0.63564831  0.67278292     0.01000
C1238       C  0.01385983  0.63395052  0.69789764    -0.10900
C1239       C  0.99871049  0.65040347  0.71113751     0.03200
C1240       C  0.98705885  0.67105130  0.69977595     0.00900
C1241       C  0.99109498  0.67373440  0.67469918    -0.10800
C1242       C  0.00510959  0.65612071  0.66124334     0.03100
H1243       H  0.02180111  0.61798072  0.70700151     0.16100
H1244       H  0.98313487  0.68955715  0.66545535     0.16100
C1245       C  0.00642912  0.65858086  0.63543714     0.37700
C1246       C  0.99579813  0.64523770  0.73647601     0.37700
N1247       N  0.00756304  0.66037649  0.61472558    -0.42600
N1248       N  0.99338744  0.64091060  0.75673456    -0.42600
C1249       C  0.78275919  0.83906849  0.00667145     0.01000
C1250       C  0.80852095  0.83442209  0.00966237    -0.10900
C1251       C  0.82645797  0.85035540  0.00012066     0.03200
C1252       C  0.81882813  0.87179488  0.98762197     0.00900
C1253       C  0.79302826  0.87648179  0.98464968    -0.10800
C1254       C  0.77510269  0.86009694  0.99351498     0.03100
H1255       H  0.81471366  0.81774074  0.01869362     0.16100
H1256       H  0.78687099  0.89331798  0.97587134     0.16100
C1257       C  0.74890530  0.86533785  0.98914501     0.37700
C1258       C  0.85263606  0.84480754  0.00420284     0.37700
N1259       N  0.72791176  0.86954006  0.98563073    -0.42600
N1260       N  0.87364634  0.84041794  0.00740008    -0.42600
C1261       C  0.83123747  0.75464431  0.97066100     0.01000
C1262       C  0.82829934  0.74896803  0.94623659    -0.10900
C1263       C  0.84574407  0.75661553  0.92870918     0.03200
C1264       C  0.86700430  0.76987216  0.93546154     0.00900
C1265       C  0.86978600  0.77574435  0.95988853    -0.10800
C1266       C  0.85211355  0.76856097  0.97730591     0.03100
H1267       H  0.81204744  0.73893660  0.94080145     0.16100
H1268       H  0.88655716  0.78493509  0.96554645     0.16100
C1269       C  0.85643143  0.77470503  0.00212205     0.37700
C1270       C  0.84214113  0.74960643  0.90401895     0.37700
N1271       N  0.85995893  0.77951665  0.02202753    -0.42600
N1272       N  0.83928612  0.74408671  0.88418875    -0.42600
C1273       C  0.75024844  0.78847388  0.92546012     0.01000
C1274       C  0.74334914  0.81338385  0.92469513    -0.10900
C1275       C  0.75322395  0.82901176  0.90705462     0.03200
C1276       C  0.77109250  0.81999466  0.89014549     0.00900
C1277       C  0.77839412  0.79514464  0.89136811    -0.10800
C1278       C  0.76784152  0.77935517  0.90841873     0.03100
H1279       H  0.73029902  0.82073049  0.93802952     0.16100
H1280       H  0.79075043  0.78757783  0.87755578     0.16100
C1281       C  0.77388559  0.75346927  0.90689642     0.37700
C1282       C  0.74279402  0.85354700  0.90543771     0.37700
N1283       N  0.77843427  0.73268873  0.90537178    -0.42600
N1284       N  0.73366730  0.87293876  0.90449308    -0.42600
C1285       C  0.66227189  0.76401152  0.04731918     0.01000
C1286       C  0.66229935  0.76241006  0.07268067    -0.10900
C1287       C  0.64314713  0.75040071  0.08556909     0.03200
C1288       C  0.62377307  0.73851117  0.07318069     0.00900
C1289       C  0.62347821  0.74064234  0.04796830    -0.10800
C1290       C  0.64170679  0.75371850  0.03519646     0.03100
H1291       H  0.67756364  0.77027094  0.08260564     0.16100
H1292       H  0.60856215  0.73227234  0.03797602     0.16100
C1293       C  0.63840510  0.75628646  0.00956972     0.37700
C1294       C  0.64317484  0.75175475  0.11146460     0.37700
N1295       N  0.63558162  0.75848806  0.98907072    -0.42600
N1296       N  0.64279505  0.75312398  0.13221506    -0.42600
C1297       C  0.72231064  0.68661245  0.12006182     0.01000
C1298       C  0.73655800  0.67449759  0.10226840    -0.10900
C1299       C  0.74985198  0.68764986  0.08461941     0.03200
C1300       C  0.74920343  0.71377324  0.08452072     0.00900
C1301       C  0.73435401  0.72568193  0.10218599    -0.10800
C1302       C  0.72088584  0.71251763  0.11947785     0.03100
H1303       H  0.73836775  0.65467490  0.10285999     0.16100
H1304       H  0.73264003  0.74552508  0.10228756     0.16100
C1305       C  0.70615656  0.72615391  0.13697901     0.37700
C1306       C  0.76404294  0.67356665  0.06710288     0.37700
N1307       N  0.69458212  0.73707766  0.15115282    -0.42600
N1308       N  0.77533166  0.66209975  0.05312748    -0.42600
C1309       C  0.66708915  0.64416709  0.01800966     0.01000
C1310       C  0.69281149  0.63888809  0.01523535    -0.10900
C1311       C  0.70950874  0.65686774  0.00737570     0.03200
C1312       C  0.70046389  0.68081408  0.00189087     0.00900
C1313       C  0.67484696  0.68630381  0.00617795    -0.10800
C1314       C  0.65830527  0.66836299  0.01418453     0.03100
H1315       H  0.69952689  0.62008939  0.01730945     0.16100
H1316       H  0.66749431  0.70473059  0.00314001     0.16100
C1317       C  0.63191330  0.67462027  0.01608085     0.37700
C1318       C  0.73545360  0.64969953  0.00388920     0.37700
N1319       N  0.61075156  0.67951229  0.01749645    -0.42600
N1320       N  0.75623289  0.64383031  0.00112304    -0.42600
C1321       C  0.33560477  0.85715649  0.48631709     0.01000
C1322       C  0.32696228  0.85806981  0.51047452    -0.10900
C1323       C  0.31737862  0.83736680  0.52224033     0.03200
C1324       C  0.31800702  0.81445164  0.51072684     0.00900
C1325       C  0.32865459  0.81298112  0.48742335    -0.10800
C1326       C  0.33675106  0.83406257  0.47500319     0.03100
H1327       H  0.32616237  0.87548916  0.51981549     0.16100
H1328       H  0.32843594  0.79563682  0.47794377     0.16100
C1329       C  0.34352141  0.83179816  0.44995656     0.37700
C1330       C  0.30573395  0.84037894  0.54559151     0.37700
N1331       N  0.34853594  0.82976277  0.42977957    -0.42600
N1332       N  0.29615928  0.84285196  0.56419335    -0.42600
C1333       C  0.27187618  0.84623767  0.40746110     0.01000
C1334       C  0.27016382  0.82186559  0.39989470    -0.10900
C1335       C  0.26262582  0.80324446  0.41575181     0.03200
C1336       C  0.25615704  0.80888627  0.44002324     0.00900
C1337       C  0.26034545  0.83298121  0.44798521    -0.10800
C1338       C  0.26827914  0.85139510  0.43207639     0.03100
H1339       H  0.27249712  0.81775329  0.38093103     0.16100
H1340       H  0.25707011  0.83770027  0.46667493     0.16100
C1341       C  0.27031155  0.87613486  0.44088436     0.37700
C1342       C  0.26123059  0.77878031  0.40608491     0.37700
N1343       N  0.27187195  0.89601525  0.44781770    -0.42600
N1344       N  0.26035356  0.75920309  0.39821932    -0.42600
C1345       C  0.18700365  0.74860719  0.55460483     0.01000
C1346       C  0.17313979  0.76732306  0.56581382    -0.10900
C1347       C  0.15270488  0.76183181  0.58089292     0.03200
C1348       C  0.14517563  0.73702512  0.58439809     0.00900
C1349       C  0.15968785  0.71846475  0.57372187    -0.10800
C1350       C  0.18107684  0.72389827  0.56023192     0.03100
H1351       H  0.17777635  0.78627427  0.56225314     0.16100
H1352       H  0.15407020  0.69961345  0.57502709     0.16100
C1353       C  0.19729495  0.70345544  0.55382897     0.37700
C1354       C  0.13931229  0.78240750  0.59148194     0.37700
N1355       N  0.21017162  0.68667334  0.54971637    -0.42600
N1356       N  0.12869459  0.79932212  0.59929189    -0.42600
C1357       C  0.33324289  0.73985907  0.44674746     0.01000
C1358       C  0.32830105  0.74508410  0.42235452    -0.10900
C1359       C  0.34534790  0.75803065  0.40784825     0.03200
C1360       C  0.36794646  0.76641389  0.41764506     0.00900
C1361       C  0.37246836  0.76206700  0.44209715    -0.10800
C1362       C  0.35585744  0.74879906  0.45650221     0.03100
H1363       H  0.31095167  0.73913706  0.41448802     0.16100
H1364       H  0.38993030  0.76807663  0.44975588     0.16100
C1365       C  0.36299069  0.74488391  0.48123711     0.37700
C1366       C  0.33965160  0.76140327  0.38273705     0.37700
N1367       N  0.36889620  0.74185979  0.50101054    -0.42600
N1368       N  0.33502828  0.76408391  0.36260581    -0.42600
C1369       C  0.19949644  0.68276742  0.49323512     0.01000
C1370       C  0.19802151  0.65915555  0.50377087    -0.10900
C1371       C  0.17527409  0.65038290  0.51377412     0.03200
C1372       C  0.15363379  0.66588546  0.51481317     0.00900
C1373       C  0.15602409  0.68993627  0.50559605    -0.10800
C1374       C  0.17764252  0.69773553  0.49363795     0.03100
H1375       H  0.21477656  0.64762317  0.50443168     0.16100
H1376       H  0.14038462  0.70283177  0.50687915     0.16100
C1377       C  0.17685583  0.72178496  0.48262110     0.37700
C1378       C  0.17487169  0.62554268  0.52270824     0.37700
N1379       N  0.17611595  0.74103524  0.47378255    -0.42600
N1380       N  0.17479237  0.60560906  0.52993696    -0.42600
C1381       C  0.26817261  0.68695823  0.56786262     0.01000
C1382       C  0.25593261  0.68965471  0.59026676    -0.10900
C1383       C  0.24496115  0.66958648  0.60192708     0.03200
C1384       C  0.24540244  0.64639118  0.59085954     0.00900
C1385       C  0.25617795  0.64414500  0.56776586    -0.10800
C1386       C  0.26791937  0.66388058  0.55650186     0.03100
H1387       H  0.25485920  0.70757684  0.59862291     0.16100
H1388       H  0.25718708  0.62624672  0.55931204     0.16100
C1389       C  0.27887593  0.66004671  0.53294132     0.37700
C1390       C  0.23471833  0.67287881  0.62580815     0.37700
N1391       N  0.28757826  0.65692908  0.51404412    -0.42600
N1392       N  0.22646610  0.67542658  0.64495905    -0.42600
C1393       C  0.82693975  0.44972792  0.23438840     0.01000
C1394       C  0.84623285  0.46383909  0.24376984    -0.10900
C1395       C  0.86535506  0.45298912  0.25765801     0.03200
C1396       C  0.86589642  0.42735978  0.26208255     0.00900
C1397       C  0.84686666  0.41319059  0.25232794    -0.10800
C1398       C  0.82757406  0.42407031  0.23867247     0.03100
H1399       H  0.84552295  0.48361888  0.24157913     0.16100
H1400       H  0.84762468  0.39341140  0.25451624     0.16100
C1401       C  0.80854507  0.40846294  0.22914642     0.37700
C1402       C  0.88437040  0.46856225  0.26725390     0.37700
N1403       N  0.79329894  0.39595744  0.22149981    -0.42600
N1404       N  0.89977465  0.48093208  0.27480775    -0.42600
C1405       C  0.80610748  0.50637062  0.31021189     0.01000
C1406       C  0.83239780  0.50711959  0.30841485    -0.10900
C1407       C  0.84778504  0.49887525  0.32729599     0.03200
C1408       C  0.83717393  0.48869705  0.34837542     0.00900
C1409       C  0.81099692  0.48648769  0.34952558    -0.10800
C1410       C  0.79549780  0.49529687  0.33089976     0.03100
H1411       H  0.84096953  0.51474159  0.29235530     0.16100
H1412       H  0.80246196  0.47959042  0.36592089     0.16100
C1413       C  0.76882015  0.49215964  0.33337338     0.37700
C1414       C  0.87432901  0.50340350  0.32581441     0.37700
N1415       N  0.74747950  0.48935910  0.33553090    -0.42600
N1416       N  0.89555641  0.50728564  0.32493760    -0.42600
C1417       C  0.74779752  0.57773943  0.19949469     0.01000
C1418       C  0.75033576  0.58043718  0.17434645    -0.10900
C1419       C  0.73800112  0.59974014  0.16193906     0.03200
C1420       C  0.72187669  0.61617503  0.17450639     0.00900
C1421       C  0.71754501  0.61203169  0.19902780    -0.10800
C1422       C  0.73073920  0.59382878  0.21165589     0.03100
H1423       H  0.76260738  0.56794104  0.16443629     0.16100
H1424       H  0.70550936  0.62480379  0.20892654     0.16100
C1425       C  0.72694356  0.59320387  0.23734995     0.37700
C1426       C  0.74364806  0.60337195  0.13678039     0.37700
N1427       N  0.72425447  0.59323613  0.25799769    -0.42600
N1428       N  0.74827723  0.60624314  0.11661835    -0.42600
C1429       C  0.74999735  0.43148780  0.29799382     0.01000
C1430       C  0.73266595  0.41558837  0.30835338    -0.10900
C1431       C  0.73878413  0.40241031  0.32946650     0.03200
C1432       C  0.76207103  0.40604324  0.34113826     0.00900
C1433       C  0.77993992  0.42004927  0.32937571    -0.10800
C1434       C  0.77468765  0.43138059  0.30746578     0.03100
H1435       H  0.71390355  0.41479408  0.30111572     0.16100
H1436       H  0.79735813  0.42425583  0.33810320     0.16100
C1437       C  0.79505521  0.44408150  0.29613012     0.37700
C1438       C  0.72001519  0.38693327  0.34008956     0.37700
N1439       N  0.81212402  0.45386117  0.28791121    -0.42600
N1440       N  0.70500650  0.37450807  0.34863869    -0.42600
C1441       C  0.67563901  0.51646487  0.13091842     0.01000
C1442       C  0.66465835  0.50024620  0.14742855    -0.10900
C1443       C  0.67920509  0.48753581  0.16460450     0.03200
C1444       C  0.70543478  0.49111289  0.16570287     0.00900
C1445       C  0.71617588  0.50758253  0.14911842    -0.10800
C1446       C  0.70167357  0.52011330  0.13200940     0.03100
H1447       H  0.64481290  0.49650868  0.14609519     0.16100
H1448       H  0.73604175  0.51138127  0.14984212     0.16100
C1449       C  0.71401561  0.53653971  0.11547894     0.37700
C1450       C  0.66675841  0.47037256  0.18025552     0.37700
N1451       N  0.72390537  0.54961451  0.10216576    -0.42600
N1452       N  0.65676370  0.45653215  0.19271084    -0.42600
C1453       C  0.63042207  0.57518907  0.22617739     0.01000
C1454       C  0.64396004  0.58255304  0.24643854    -0.10900
C1455       C  0.66254629  0.56720906  0.25685651     0.03200
C1456       C  0.66851902  0.54403774  0.24672384     0.00900
C1457       C  0.65497900  0.53680181  0.22635524    -0.10800
C1458       C  0.63600249  0.55186446  0.21636702     0.03100
H1459       H  0.63876871  0.59969042  0.25517393     0.16100
H1460       H  0.65941506  0.51933418  0.21790629     0.16100
C1461       C  0.62192356  0.54268050  0.19639481     0.37700
C1462       C  0.67372511  0.57483993  0.27903824     0.37700
N1463       N  0.61060631  0.53525602  0.18044130    -0.42600
N1464       N  0.68244405  0.58090667  0.29697350    -0.42600
C1465       C  0.17248482  0.18651622  0.97327133     0.01000
C1466       C  0.17770617  0.18900907  0.99790095    -0.10900
C1467       C  0.16815997  0.17247846  0.01503943     0.03200
C1468       C  0.15380302  0.15257108  0.00761581     0.00900
C1469       C  0.14642814  0.15163660  0.98336177    -0.10800
C1470       C  0.15560896  0.16840154  0.96626680     0.03100
H1471       H  0.19018039  0.20318444  0.00365176     0.16100
H1472       H  0.13534682  0.13641071  0.97736971     0.16100
C1473       C  0.14857928  0.16583257  0.94145251     0.37700
C1474       C  0.17370921  0.17577262  0.04012301     0.37700
N1475       N  0.14279408  0.16384887  0.92157473    -0.42600
N1476       N  0.17765639  0.17858358  0.06032986    -0.42600
C1477       C  0.17490042  0.24760596  0.04224654     0.01000
C1478       C  0.15221990  0.23519162  0.03885942    -0.10900
C1479       C  0.13769325  0.22714983  0.05840326     0.03200
C1480       C  0.14570175  0.23112661  0.08204761     0.00900
C1481       C  0.16899463  0.24207803  0.08552094    -0.10800
C1482       C  0.18335817  0.25064549  0.06608527     0.03100
H1483       H  0.14553981  0.23186106  0.02084094     0.16100
H1484       H  0.17476492  0.24624993  0.10368664     0.16100
C1485       C  0.20563345  0.26409352  0.07144928     0.37700
C1486       C  0.11392297  0.21594591  0.05387183     0.37700
N1487       N  0.22332254  0.27511343  0.07580698    -0.42600
N1488       N  0.09490392  0.20688057  0.05028358    -0.42600
C1489       C  0.24150052  0.18203799  0.04189126     0.01000
C1490       C  0.23171930  0.15825843  0.03957242    -0.10900
C1491       C  0.22629426  0.14362785  0.05984667     0.03200
C1492       C  0.23009909  0.15263437  0.08321465     0.00900
C1493       C  0.23877682  0.17663349  0.08560868    -0.10800
C1494       C  0.24488677  0.19109048  0.06550991     0.03100
H1495       H  0.22845635  0.15084599  0.02185070     0.16100
H1496       H  0.24314638  0.18326830  0.10342128     0.16100
C1497       C  0.25623578  0.21440723  0.07003920     0.37700
C1498       C  0.21807519  0.11884747  0.05636457     0.37700
N1499       N  0.26566851  0.23290192  0.07383990    -0.42600
N1500       N  0.21149683  0.09894105  0.05381004    -0.42600
C1501       C  0.29879641  0.30078204  0.97381264     0.01000
C1502       C  0.31888354  0.29740062  0.95756974    -0.10900
C1503       C  0.33940697  0.31298188  0.95764346     0.03200
C1504       C  0.33903780  0.33368965  0.97265124     0.00900
C1505       C  0.31798999  0.33808938  0.98757470    -0.10800
C1506       C  0.29836809  0.32145427  0.98887443     0.03100
H1507       H  0.31935824  0.28151508  0.94601048     0.16100
H1508       H  0.31801346  0.35342862  0.99992719     0.16100
C1509       C  0.27831660  0.32584333  0.00603609     0.37700
C1510       C  0.36184447  0.30535594  0.94488445     0.37700
N1511       N  0.26228052  0.32942010  0.01979822    -0.42600
N1512       N  0.38002887  0.29881537  0.93519891    -0.42600
C1513       C  0.34537663  0.25187243  0.90150499     0.01000
C1514       C  0.34491812  0.24209811  0.92507766    -0.10900
C1515       C  0.32407904  0.22951698  0.93426790     0.03200
C1516       C  0.30266963  0.22647585  0.91992182     0.00900
C1517       C  0.30321826  0.23609111  0.89631139    -0.10800
C1518       C  0.32405285  0.24855154  0.88708733     0.03100
H1519       H  0.36111119  0.24417650  0.93644204     0.16100
H1520       H  0.28697846  0.23421606  0.88496170     0.16100
C1521       C  0.32316268  0.25686757  0.86243861     0.37700
C1522       C  0.32496676  0.22078118  0.95876723     0.37700
N1523       N  0.32237650  0.26346815  0.84265810    -0.42600
N1524       N  0.32573201  0.21375406  0.97840694    -0.42600
C1525       C  0.22519890  0.31509174  0.92700027     0.01000
C1526       C  0.23608494  0.32909531  0.94512459    -0.10900
C1527       C  0.25129408  0.34917300  0.93955041     0.03200
C1528       C  0.25569063  0.35624756  0.91529738     0.00900
C1529       C  0.24511884  0.34202365  0.89716297    -0.10800
C1530       C  0.23022650  0.32164485  0.90274124     0.03100
H1531       H  0.23355488  0.32375014  0.96377482     0.16100
H1532       H  0.24764429  0.34735793  0.87856708     0.16100
C1533       C  0.21984436  0.30803614  0.88312398     0.37700
C1534       C  0.26201258  0.36255111  0.95916516     0.37700
N1535       N  0.21155328  0.29718653  0.86733900    -0.42600
N1536       N  0.27037732  0.37385042  0.97460353    -0.42600
C1537       C  0.22832746  0.44839222  0.82786047     0.01000
C1538       C  0.23465304  0.42321554  0.82567448    -0.10900
C1539       C  0.25065276  0.41109803  0.84215116     0.03200
C1540       C  0.26075570  0.42406436  0.86163595     0.00900
C1541       C  0.25686990  0.44972819  0.86200663    -0.10800
C1542       C  0.24053321  0.46178223  0.84600584     0.03100
H1543       H  0.22675292  0.41269552  0.81119512     0.16100
H1544       H  0.26525664  0.46033024  0.87619550     0.16100
C1545       C  0.23621259  0.48777455  0.84952909     0.37700
C1546       C  0.25597764  0.38534993  0.83861343     0.37700
N1547       N  0.23294209  0.50859663  0.85250648    -0.42600
N1548       N  0.26037850  0.36479137  0.83518224    -0.42600
C1549       C  0.30846685  0.48625885  0.80099254     0.01000
C1550       C  0.30686445  0.48299091  0.82613935    -0.10900
C1551       C  0.32781183  0.47605881  0.83980327     0.03200
C1552       C  0.35124928  0.47219284  0.82840065     0.00900
C1553       C  0.35246286  0.47333828  0.80316235    -0.10800
C1554       C  0.33162043  0.48048911  0.78946449     0.03100
H1555       H  0.28923722  0.48655516  0.83547215     0.16100
H1556       H  0.37044173  0.47046094  0.79418790     0.16100
C1557       C  0.33518114  0.48275235  0.76380657     0.37700
C1558       C  0.32503362  0.47500076  0.86561953     0.37700
N1559       N  0.33823189  0.48464096  0.74326719    -0.42600
N1560       N  0.32265919  0.47415671  0.88629983    -0.42600
C1561       C  0.17429725  0.60903528  0.73286956     0.01000
C1562       C  0.19971724  0.60611890  0.73946457    -0.10900
C1563       C  0.20820671  0.58613938  0.75343732     0.03200
C1564       C  0.19151084  0.56749080  0.76003822     0.00900
C1565       C  0.16651548  0.56962299  0.75203713    -0.10800
C1566       C  0.15780023  0.58998417  0.73887033     0.03100
H1567       H  0.21285092  0.62035896  0.73489314     0.16100
H1568       H  0.15332981  0.55535438  0.75637496     0.16100
C1569       C  0.13152622  0.59103305  0.73295553     0.37700
C1570       C  0.23378027  0.58602011  0.76160131     0.37700
N1571       N  0.11043629  0.59149137  0.72827632    -0.42600
N1572       N  0.25417000  0.58627400  0.76847829    -0.42600
C1573       C  0.16585541  0.47662007  0.69923447     0.01000
C1574       C  0.15062323  0.49808248  0.69740032    -0.10900
C1575       C  0.14677331  0.51046216  0.67539176     0.03200
C1576       C  0.15869941  0.50180360  0.65414560     0.00900
C1577       C  0.17133439  0.47859928  0.65580609    -0.10800
C1578       C  0.17515832  0.46630757  0.67775461     0.03100
H1579       H  0.14236729  0.50601477  0.71354114     0.16100
H1580       H  0.17875868  0.46968096  0.63987218     0.16100
C1581       C  0.18928390  0.44344463  0.67758679     0.37700
C1582       C  0.13039713  0.53176577  0.67586099     0.37700
N1583       N  0.20056475  0.42509540  0.67740759    -0.42600
N1584       N  0.11673728  0.54846497  0.67732574    -0.42600
C1585       C  0.28464758  0.41294576  0.75170484     0.01000
C1586       C  0.31032435  0.41810044  0.74901901    -0.10900
C1587       C  0.32913500  0.40171235  0.75740668     0.03200
C1588       C  0.32252666  0.37963254  0.76906982     0.00900
C1589       C  0.29697600  0.37455126  0.77178876    -0.10800
C1590       C  0.27824114  0.39052895  0.76309995     0.03100
H1591       H  0.31580487  0.43514676  0.74060206     0.16100
H1592       H  0.29154460  0.35751240  0.78030703     0.16100
C1593       C  0.25262322  0.38280660  0.76577778     0.37700
C1594       C  0.35500002  0.40748509  0.75274854     0.37700
N1595       N  0.23217709  0.37641398  0.76795996    -0.42600
N1596       N  0.37571906  0.41210645  0.74886630    -0.42600
C1597       C  0.23253168  0.58176848  0.65444703     0.01000
C1598       C  0.24699555  0.58273241  0.67539746    -0.10900
C1599       C  0.24771346  0.56321490  0.69175213     0.03200
C1600       C  0.23215648  0.54296828  0.68849317     0.00900
C1601       C  0.21647972  0.54250365  0.66825710    -0.10800
C1602       C  0.21754022  0.56119025  0.65072267     0.03100
H1603       H  0.25967611  0.59784397  0.67779345     0.16100
H1604       H  0.20458960  0.52688691  0.66549024     0.16100
C1605       C  0.20557381  0.55808800  0.62784059     0.37700
C1606       C  0.26568481  0.56371889  0.71097248     0.37700
N1607       N  0.19677479  0.55691452  0.60896635    -0.42600
N1608       N  0.28053554  0.56369949  0.72599224    -0.42600
C1609       C  0.41489331  0.24880537  0.78627981     0.01000
C1610       C  0.41334781  0.27343813  0.79441564    -0.10900
C1611       C  0.40446351  0.27941170  0.81763577     0.03200
C1612       C  0.39624476  0.26085985  0.83322299     0.00900
C1613       C  0.39528717  0.23666261  0.82422237    -0.10800
C1614       C  0.40468542  0.23052446  0.80121799     0.03100
H1615       H  0.42084324  0.28796438  0.78341762     0.16100
H1616       H  0.38861707  0.22222002  0.83579313     0.16100
C1617       C  0.40430778  0.20521709  0.79377760     0.37700
C1618       C  0.40595962  0.30434661  0.82585275     0.37700
N1619       N  0.40396944  0.18492353  0.78780174    -0.42600
N1620       N  0.40700339  0.32420297  0.83293012    -0.42600
C1621       C  0.49560821  0.29642249  0.81077307     0.01000
C1622       C  0.49954891  0.32000351  0.80156922    -0.10900
C1623       C  0.49305773  0.34088718  0.81495721     0.03200
C1624       C  0.48319640  0.33855324  0.83852736     0.00900
C1625       C  0.47795354  0.31500809  0.84728030    -0.10800
C1626       C  0.48373048  0.29403961  0.83346351     0.03100
H1627       H  0.50723328  0.32215378  0.78357947     0.16100
H1628       H  0.47107738  0.31287785  0.86555434     0.16100
C1629       C  0.47859034  0.27018997  0.84345064     0.37700
C1630       C  0.49777086  0.36472892  0.80459631     0.37700
N1631       N  0.47457697  0.25104827  0.85149311    -0.42600
N1632       N  0.50148381  0.38383927  0.79632753    -0.42600
C1633       C  0.53892257  0.17135518  0.74036275     0.01000
C1634       C  0.53016115  0.15771724  0.72072897    -0.10900
C1635       C  0.54499428  0.13941993  0.70965880     0.03200
C1636       C  0.56925944  0.13390600  0.71814836     0.00900
C1637       C  0.57875089  0.14838347  0.73672512    -0.10800
C1638       C  0.56402726  0.16711753  0.74762444     0.03100
H1639       H  0.51153650  0.16135962  0.71376222     0.16100
H1640       H  0.59709558  0.14387766  0.74392412     0.16100
C1641       C  0.57484233  0.18084546  0.76690521     0.37700
C1642       C  0.53442005  0.12550414  0.69031348     0.37700
N1643       N  0.58357314  0.19187885  0.78233530    -0.42600
N1644       N  0.52597574  0.11434947  0.67481364    -0.42600
C1645       C  0.49167326  0.19930178  0.66415960     0.01000
C1646       C  0.51432916  0.20755754  0.65390465    -0.10900
C1647       C  0.52804604  0.19353141  0.63715132     0.03200
C1648       C  0.51921028  0.17071916  0.62966871     0.00900
C1649       C  0.49755263  0.16149995  0.64093300    -0.10800
C1650       C  0.48406358  0.17533453  0.65838026     0.03100
H1651       H  0.52165156  0.22516443  0.65910255     0.16100
H1652       H  0.49032520  0.14408205  0.63506436     0.16100
C1653       C  0.46204466  0.16492899  0.66924618     0.37700
C1654       C  0.55094130  0.20321585  0.62725564     0.37700
N1655       N  0.44445625  0.15648609  0.67803507    -0.42600
N1656       N  0.56938184  0.21082613  0.61939726    -0.42600
C1657       C  0.56955127  0.25022125  0.69235419     0.01000
C1658       C  0.57972674  0.22712255  0.69913032    -0.10900
C1659       C  0.59978473  0.21623661  0.68652769     0.03200
C1660       C  0.60994341  0.22815181  0.66639575     0.00900
C1661       C  0.59919399  0.25068285  0.65883476    -0.10800
C1662       C  0.57910826  0.26175316  0.67160728     0.03100
H1663       H  0.57207544  0.21748156  0.71454212     0.16100
H1664       H  0.60760885  0.26040516  0.64385367     0.16100
C1665       C  0.57003003  0.28568818  0.66425563     0.37700
C1666       C  0.61049187  0.19335659  0.69517987     0.37700
N1667       N  0.56291183  0.30500219  0.65850757    -0.42600
N1668       N  0.61929797  0.17506392  0.70194792    -0.42600
C1669       C  0.40103719  0.34196981  0.75890917     0.01000
C1670       C  0.39984499  0.33409031  0.73466826    -0.10900
C1671       C  0.42125563  0.32560700  0.72203156     0.03200
C1672       C  0.44475651  0.32546400  0.73335589     0.00900
C1673       C  0.44647791  0.33790800  0.75543563    -0.10800
C1674       C  0.42508438  0.34578277  0.76832818     0.03100
H1675       H  0.38175149  0.33265450  0.72611523     0.16100
H1676       H  0.46461292  0.33940394  0.76389916     0.16100
C1677       C  0.42909031  0.35636318  0.79151024     0.37700
C1678       C  0.41815402  0.31566718  0.69828093     0.37700
N1679       N  0.43408465  0.36500607  0.80973577    -0.42600
N1680       N  0.41554396  0.30789135  0.67916528    -0.42600
C1681       C  0.43548266  0.81551830  0.23680075     0.01000
C1682       C  0.41832141  0.80095089  0.24943483    -0.10900
C1683       C  0.39832195  0.81143272  0.26256555     0.03200
C1684       C  0.39438632  0.83711399  0.26280301     0.00900
C1685       C  0.41124153  0.85181612  0.24984455    -0.10800
C1686       C  0.43169707  0.84126541  0.23702624     0.03100
H1687       H  0.42118666  0.78122191  0.25005246     0.16100
H1688       H  0.40772646  0.87144593  0.24874969     0.16100
C1689       C  0.44767089  0.85701012  0.22303098     0.37700
C1690       C  0.38197213  0.79539102  0.27585812     0.37700
N1691       N  0.46034758  0.86950658  0.21151671    -0.42600
N1692       N  0.36888204  0.78260481  0.28658741    -0.42600
C1693       C  0.51771715  0.82393685  0.30721739     0.01000
C1694       C  0.51208119  0.84857857  0.30116277    -0.10900
C1695       C  0.49903980  0.86421507  0.31708302     0.03200
C1696       C  0.49171754  0.85579556  0.34002880     0.00900
C1697       C  0.49580636  0.83094726  0.34563589    -0.10800
C1698       C  0.50879267  0.81511323  0.32976906     0.03100
H1699       H  0.51774373  0.85578884  0.28380489     0.16100
H1700       H  0.49107558  0.82446161  0.36354457     0.16100
C1701       C  0.51287087  0.79008871  0.33760796     0.37700
C1702       C  0.49517063  0.88961950  0.31036668     0.37700
N1703       N  0.51609055  0.77007690  0.34406369    -0.42600
N1704       N  0.49205651  0.90998888  0.30506032    -0.42600
C1705       C  0.56539037  0.77299208  0.18037759     0.01000
C1706       C  0.55844181  0.78201928  0.15778643    -0.10900
C1707       C  0.56420818  0.76879123  0.13677128     0.03200
C1708       C  0.57479551  0.74457258  0.13818149     0.00900
C1709       C  0.58320399  0.73632764  0.16051809    -0.10800
C1710       C  0.57968941  0.75059158  0.18123017     0.03100
H1711       H  0.54882664  0.79967929  0.15647761     0.16100
H1712       H  0.59267051  0.71863200  0.16188754     0.16100
C1713       C  0.59140304  0.74145283  0.20284065     0.37700
C1714       C  0.56068626  0.78147933  0.11418073     0.37700
N1715       N  0.60152924  0.73404175  0.21974861    -0.42600
N1716       N  0.55824362  0.79184536  0.09613287    -0.42600
C1717       C  0.43905595  0.76276651  0.29947616     0.01000
C1718       C  0.42249064  0.74576565  0.30921083    -0.10900
C1719       C  0.40840966  0.75159561  0.32999812     0.03200
C1720       C  0.41138619  0.77448957  0.34163277     0.00900
C1721       C  0.42511866  0.79253983  0.32990860    -0.10800
C1722       C  0.43862621  0.78695666  0.30884584     0.03100
H1723       H  0.42215533  0.72736481  0.30193935     0.16100
H1724       H  0.42725044  0.81025879  0.33836456     0.16100
C1725       C  0.45257404  0.80629545  0.29756756     0.37700
C1726       C  0.39312229  0.73282702  0.34065721     0.37700
N1727       N  0.46302268  0.82216816  0.28829805    -0.42600
N1728       N  0.38087963  0.71777926  0.34920752    -0.42600
C1729       C  0.51425867  0.70210772  0.17958058     0.01000
C1730       C  0.52125086  0.67816742  0.18625113    -0.10900
C1731       C  0.52381792  0.65950556  0.16914574     0.03200
C1732       C  0.51911869  0.66470228  0.14476081     0.00900
C1733       C  0.51423400  0.68918685  0.13781755    -0.10800
C1734       C  0.51202003  0.70791580  0.15500932     0.03100
H1735       H  0.52370568  0.67390273  0.20495776     0.16100
H1736       H  0.51020623  0.69332780  0.11915381     0.16100
C1737       C  0.50658528  0.73269630  0.14715454     0.37700
C1738       C  0.52875015  0.63472752  0.17733816     0.37700
N1739       N  0.50227625  0.75256582  0.14082126    -0.42600
N1740       N  0.53265172  0.61486249  0.18390191    -0.42600
C1741       C  0.55851868  0.68912016  0.25756454     0.01000
C1742       C  0.58390948  0.68425312  0.25153334    -0.10900
C1743       C  0.59169924  0.66246770  0.23977827     0.03200
C1744       C  0.57389265  0.64489124  0.23327240     0.00900
C1745       C  0.54855287  0.64985950  0.23938637    -0.10800
C1746       C  0.54083564  0.67134783  0.25146003     0.03100
H1747       H  0.59781839  0.69773020  0.25585226     0.16100
H1748       H  0.53444283  0.63670890  0.23470943     0.16100
C1749       C  0.51435273  0.67524219  0.25592041     0.37700
C1750       C  0.61815936  0.65829951  0.23560537     0.37700
N1751       N  0.49310989  0.67836147  0.25935245    -0.42600
N1752       N  0.63940657  0.65499090  0.23235168    -0.42600
C1753       C  0.07811656  0.05641286  0.97940470     0.01000
C1754       C  0.07267710  0.08008994  0.98847428    -0.10900
C1755       C  0.08972428  0.09256697  0.00305183     0.03200
C1756       C  0.11289128  0.08129476  0.00941204     0.00900
C1757       C  0.11741574  0.05699111  0.00177965    -0.10800
C1758       C  0.10096478  0.04489341  0.98653177     0.03100
H1759       H  0.05504294  0.08912760  0.98401981     0.16100
H1760       H  0.13453312  0.04747088  0.00703040     0.16100
C1761       C  0.10873370  0.02084339  0.97818136     0.37700
C1762       C  0.08311886  0.11720804  0.01040111     0.37700
N1763       N  0.11519897  0.00166604  0.97143972    -0.42600
N1764       N  0.07781460  0.13700983  0.01619493    -0.42600
C1765       C  0.00175012  0.06467485  0.04841996     0.01000
C1766       C  0.01214121  0.08790073  0.04363564    -0.10900
C1767       C  0.01857843  0.10395498  0.06225024     0.03200
C1768       C  0.01539758  0.09693500  0.08645302     0.00900
C1769       C  0.00673365  0.07321608  0.09131871    -0.10800
C1770       C  0.99964483  0.05732177  0.07282068     0.03100
H1771       H  0.01466824  0.09399153  0.02522589     0.16100
H1772       H  0.00318968  0.06795927  0.10984450     0.16100
C1773       C  0.98887572  0.03426926  0.07975876     0.37700
C1774       C  0.02636389  0.12842869  0.05615291     0.37700
N1775       N  0.97995013  0.01595972  0.08548421    -0.42600
N1776       N  0.03245250  0.14812704  0.05140298    -0.42600
C1777       C  0.06560890  0.00097727  0.05605493     0.01000
C1778       C  0.08840008  0.01363053  0.05346679    -0.10900
C1779       C  0.10276711  0.02024037  0.07347724     0.03200
C1780       C  0.09421563  0.01499746  0.09693254     0.00900
C1781       C  0.07073831  0.00391161  0.09961136    -0.10800
C1782       C  0.05674971  0.99651061  0.07970878     0.03100
H1783       H  0.09557968  0.01775591  0.03566269     0.16100
H1784       H  0.06437262  0.99889063  0.11751082     0.16100
C1785       C  0.03447898  0.98263483  0.08439096     0.37700
C1786       C  0.12716984  0.03049200  0.06937381     0.37700
N1787       N  0.01684291  0.97122185  0.08830665    -0.42600
N1788       N  0.14676242  0.03860948  0.06597033    -0.42600
C1789       C  0.94590624  0.94053062  0.98216825     0.01000
C1790       C  0.93699489  0.92963007  0.00336353    -0.10900
C1791       C  0.91508319  0.91580894  0.00345872     0.03200
C1792       C  0.90049799  0.91383614  0.98239987     0.00900
C1793       C  0.91062598  0.92236962  0.96071640    -0.10800
C1794       C  0.93351072  0.93483424  0.96026387     0.03100
H1795       H  0.94681798  0.93234017  0.02008217     0.16100
H1796       H  0.89996808  0.92078179  0.94432172     0.16100
C1797       C  0.94300366  0.94222980  0.93700725     0.37700
C1798       C  0.90734930  0.90439799  0.02573167     0.37700
N1799       N  0.95066284  0.94788733  0.91830695    -0.42600
N1800       N  0.90109810  0.89509460  0.04346855    -0.42600
C1801       C  0.94111314  0.01387317  0.93079624     0.01000
C1802       C  0.92559506  0.00449409  0.94892325    -0.10900
C1803       C  0.90434498  0.99085351  0.94351735     0.03200
C1804       C  0.89734319  0.98666099  0.91929165     0.00900
C1805       C  0.91325012  0.99550745  0.90105968    -0.10800
C1806       C  0.93493774  0.00883450  0.90657762     0.03100
H1807       H  0.93075238  0.00682809  0.96757855     0.16100
H1808       H  0.90832279  0.99276322  0.88245352     0.16100
C1809       C  0.95014455  0.01787000  0.88701272     0.37700
C1810       C  0.89004827  0.98122987  0.96346933     0.37700
N1811       N  0.96217926  0.02522610  0.87125406    -0.42600
N1812       N  0.87856708  0.97375722  0.97954132    -0.42600
C1813       C  0.99556166  0.89525271  0.91980685     0.01000
C1814       C  0.00974157  0.90968656  0.90404741    -0.10900
C1815       C  0.02500030  0.92827520  0.91271565     0.03200
C1816       C  0.02634097  0.93285772  0.93769456     0.00900
C1817       C  0.01218024  0.91834092  0.95346962    -0.10800
C1818       C  0.99683148  0.89979395  0.94473812     0.03100
H1819       H  0.00984288  0.90564202  0.88497016     0.16100
H1820       H  0.01213328  0.92225335  0.97256458     0.16100
C1821       C  0.98221416  0.88574078  0.96162793     0.37700
C1822       C  0.03958394  0.94212290  0.89560088     0.37700
N1823       N  0.97034548  0.87454727  0.97510401    -0.42600
N1824       N  0.05131856  0.95317510  0.88189712    -0.42600
C1825       C  0.00253398  0.54949166  0.56703352     0.01000
C1826       C  0.01326915  0.53577707  0.58574913    -0.10900
C1827       C  0.02339593  0.54726883  0.60580183     0.03200
C1828       C  0.02305504  0.57321121  0.60763168     0.00900
C1829       C  0.01331056  0.58701737  0.58835528    -0.10800
C1830       C  0.00302372  0.57539944  0.56823377     0.03100
H1831       H  0.01385456  0.51590314  0.58468461     0.16100
H1832       H  0.01174406  0.60681640  0.58992637     0.16100
C1833       C  0.99132102  0.59035362  0.54987345     0.37700
C1834       C  0.03179494  0.53192264  0.62546838     0.37700
N1835       N  0.98174830  0.60229518  0.53522133    -0.42600
N1836       N  0.03779931  0.51969014  0.64152962    -0.42600
C1837       C  0.08196270  0.48972296  0.55099165     0.01000
C1838       C  0.07824445  0.49167392  0.57605012    -0.10900
C1839       C  0.09646698  0.50178893  0.59103610     0.03200
C1840       C  0.11870966  0.51128817  0.58099900     0.00900
C1841       C  0.12219409  0.50958595  0.55588447    -0.10800
C1842       C  0.10437699  0.49874152  0.54104460     0.03100
H1843       H  0.06081115  0.48547837  0.58394300     0.16100
H1844       H  0.13918894  0.51653292  0.54775787     0.16100
C1845       C  0.10904232  0.49816935  0.51546615     0.37700
C1846       C  0.09249661  0.50088755  0.61670202     0.37700
N1847       N  0.11279499  0.49755625  0.49496440    -0.42600
N1848       N  0.08975584  0.49994429  0.63733650    -0.42600
C1849       C  0.01878369  0.45699674  0.41646061     0.01000
C1850       C  0.00184832  0.46865499  0.40049570    -0.10900
C1851       C  0.98759136  0.45530386  0.38419284     0.03200
C1852       C  0.99077535  0.42961043  0.38224410     0.00900
C1853       C  0.00846560  0.41791077  0.39723390    -0.10800
C1854       C  0.02226879  0.43119044  0.41422164     0.03100
H1855       H  0.99818615  0.48822934  0.40184414     0.16100
H1856       H  0.01227800  0.39845467  0.39501966     0.16100
C1857       C  0.04030579  0.41783271  0.42862051     0.37700
C1858       C  0.96920199  0.46840680  0.36988807     0.37700
N1859       N  0.05488907  0.40703500  0.43997518    -0.42600
N1860       N  0.95436126  0.47886487  0.35853937    -0.42600
C1861       C  0.05913253  0.57147138  0.49169333     0.01000
C1862       C  0.04563013  0.58814820  0.50622253    -0.10900
C1863       C  0.05785520  0.60646914  0.51906304     0.03200
C1864       C  0.08417896  0.60872646  0.51738894     0.00900
C1865       C  0.09775511  0.59183850  0.50309502    -0.10800
C1866       C  0.08550763  0.57335966  0.49039218     0.03100
H1867       H  0.02557088  0.58639734  0.50813070     0.16100
H1868       H  0.11773343  0.59405700  0.50059817     0.16100
C1869       C  0.10025646  0.55727927  0.47506244     0.37700
C1870       C  0.04296432  0.62342896  0.53337369     0.37700
N1871       N  0.11207157  0.54462242  0.46252721    -0.42600
N1872       N  0.03118412  0.63714863  0.54483101    -0.42600
C1873       C  0.92855655  0.49795040  0.45566432     0.01000
C1874       C  0.90372430  0.50407838  0.46163181    -0.10900
C1875       C  0.88415753  0.49654175  0.44679134     0.03200
C1876       C  0.88953993  0.48515204  0.42431349     0.00900
C1877       C  0.91398453  0.47621193  0.42025930    -0.10800
C1878       C  0.93277218  0.48073088  0.43705137     0.03100
H1879       H  0.89962984  0.51484229  0.47757825     0.16100
H1880       H  0.91872877  0.46629440  0.40397502     0.16100
C1881       C  0.95386863  0.46393794  0.43821717     0.37700
C1882       C  0.85861282  0.50181103  0.45418539     0.37700
N1883       N  0.96957055  0.44927038  0.44073574    -0.42600
N1884       N  0.83806549  0.50572603  0.46003860    -0.42600
C1885       C  0.96496503  0.42095290  0.49773600     0.01000
C1886       C  0.93877069  0.42529628  0.49756322    -0.10900
C1887       C  0.92242312  0.40887681  0.48666646     0.03200
C1888       C  0.93203000  0.38765724  0.47519705     0.00900
C1889       C  0.95815198  0.38413163  0.47388289    -0.10800
C1890       C  0.97452188  0.40008743  0.48526744     0.03100
H1891       H  0.93084730  0.44151274  0.50614316     0.16100
H1892       H  0.96568910  0.36740047  0.46590119     0.16100
C1893       C  0.00086758  0.39353960  0.48488039     0.37700
C1894       C  0.89574445  0.41306314  0.48935055     0.37700
N1895       N  0.02192746  0.38806088  0.48465794    -0.42600
N1896       N  0.87436027  0.41632616  0.49159351    -0.42600
C1897       C  0.60358315  0.00858399  0.58370280     0.01000
C1898       C  0.58549658  0.00304796  0.60133621    -0.10900
C1899       C  0.56261918  0.99214188  0.59518305     0.03200
C1900       C  0.55753519  0.98594494  0.57097772     0.00900
C1901       C  0.57550373  0.99176976  0.55340197    -0.10800
C1902       C  0.59801561  0.00309587  0.55942868     0.03100
H1903       H  0.58972809  0.00612165  0.62009457     0.16100
H1904       H  0.57154164  0.98833220  0.53464378     0.16100
C1905       C  0.61552813  0.00847975  0.54025465     0.37700
C1906       C  0.54494072  0.98685760  0.61418591     0.37700
N1907       N  0.62961477  0.01264819  0.52491234    -0.42600
N1908       N  0.53086896  0.98261064  0.62951921    -0.42600
C1909       C  0.60383459  0.08378414  0.51831917     0.01000
C1910       C  0.59503073  0.07120297  0.53855967    -0.10900
C1911       C  0.57147728  0.06052970  0.53866680     0.03200
C1912       C  0.55830088  0.05787527  0.51677602     0.00900
C1913       C  0.56689476  0.07057035  0.49647547    -0.10800
C1914       C  0.58873483  0.08440891  0.49745837     0.03100
H1915       H  0.60669334  0.06872410  0.55419162     0.16100
H1916       H  0.55648535  0.06983150  0.47985261     0.16100
C1917       C  0.59578503  0.09840016  0.47644864     0.37700
C1918       C  0.56136179  0.05321166  0.56170921     0.37700
N1919       N  0.60139239  0.10968098  0.45964991    -0.42600
N1920       N  0.55292370  0.04823094  0.58028538    -0.42600
C1921       C  0.48132048  0.07345785  0.55494868     0.01000
C1922       C  0.49625778  0.08602144  0.53818120    -0.10900
C1923       C  0.51318132  0.10395676  0.54555816     0.03200
C1924       C  0.51524825  0.11011097  0.57019356     0.00900
C1925       C  0.50033643  0.09756394  0.58690503    -0.10800
C1926       C  0.48358502  0.07954621  0.57957576     0.03100
H1927       H  0.49557624  0.08105681  0.51935764     0.16100
H1928       H  0.50089106  0.10261858  0.60571522     0.16100
C1929       C  0.46838476  0.06796772  0.59778596     0.37700
C1930       C  0.52833470  0.11585435  0.52748315     0.37700
N1931       N  0.45618812  0.05877045  0.61242749    -0.42600
N1932       N  0.54044346  0.12550065  0.51305404    -0.42600
C1933       C  0.44161123  0.00231373  0.43870951     0.01000
C1934       C  0.43698407  0.01994538  0.42088352    -0.10900
C1935       C  0.42627717  0.01339940  0.39887148     0.03200
C1936       C  0.42109020  0.98847476  0.39375410     0.00900
C1937       C  0.42466891  0.97103893  0.41199139    -0.10800
C1938       C  0.43453959  0.97778279  0.43435001     0.03100
H1939       H  0.44163720  0.03889175  0.42419129     0.16100
H1940       H  0.42075751  0.95195611  0.40845274     0.16100
C1941       C  0.43877627  0.95872270  0.45192038     0.37700
C1942       C  0.42047560  0.03276119  0.38189885     0.37700
N1943       N  0.44240194  0.94311164  0.46564222    -0.42600
N1944       N  0.41568341  0.04822472  0.36829013    -0.42600
C1945       C  0.38450836  0.92489511  0.48754183     0.01000
C1946       C  0.38296790  0.95044002  0.49078809    -0.10900
C1947       C  0.39927861  0.96279830  0.50595476     0.03200
C1948       C  0.41877252  0.94980652  0.51811024     0.00900
C1949       C  0.42091104  0.92424083  0.51419612    -0.10800
C1950       C  0.40412872  0.91181801  0.49920378     0.03100
H1951       H  0.36833522  0.96094555  0.48175010     0.16100
H1952       H  0.43598860  0.91384448  0.52264325     0.16100
C1953       C  0.40733428  0.88563811  0.49647476     0.37700
C1954       C  0.39536597  0.98898353  0.50814329     0.37700
N1955       N  0.40995623  0.86465218  0.49419602    -0.42600
N1956       N  0.39206135  0.00996018  0.50974332    -0.42600
C1957       C  0.48257482  0.90869818  0.41361075     0.01000
C1958       C  0.48603599  0.89810220  0.43637892    -0.10900
C1959       C  0.49479181  0.91189577  0.45571675     0.03200
C1960       C  0.50004668  0.93713521  0.45259741     0.00900
C1961       C  0.49475014  0.94804420  0.43019922    -0.10800
C1962       C  0.48571004  0.93421930  0.41105207     0.03100
H1963       H  0.48454101  0.87838107  0.43837570     0.16100
H1964       H  0.49730624  0.96756445  0.42765084     0.16100
C1965       C  0.48217462  0.94609386  0.38804713     0.37700
C1966       C  0.49946123  0.89920700  0.47811385     0.37700
N1967       N  0.47940440  0.95555505  0.36958346    -0.42600
N1968       N  0.50315375  0.88897515  0.49603879    -0.42600
C1969       C  0.55904846  0.55391103  0.99967049     0.01000
C1970       C  0.58185239  0.54555189  0.00978651    -0.10900
C1971       C  0.59928000  0.56188339  0.01892658     0.03200
C1972       C  0.59441723  0.58735122  0.01819794     0.00900
C1973       C  0.57082747  0.59569999  0.01031173    -0.10800
C1974       C  0.55320623  0.57940020  0.00111641     0.03100
H1975       H  0.58656830  0.52611328  0.01009754     0.16100
H1976       H  0.56714575  0.61530892  0.00903588     0.16100
C1977       C  0.52992777  0.58973889  0.99231272     0.37700
C1978       C  0.62366246  0.55247974  0.02581576     0.37700
N1979       N  0.51127624  0.59815749  0.98534195    -0.42600
N1980       N  0.64353184  0.54546823  0.03083985    -0.42600
C1981       C  0.48479727  0.55332251  0.06522640     0.01000
C1982       C  0.49831319  0.57360790  0.05656547    -0.10900
C1983       C  0.50828475  0.59089306  0.07218589     0.03200
C1984       C  0.50468503  0.58838370  0.09712449     0.00900
C1985       C  0.49275883  0.56740270  0.10596353    -0.10800
C1986       C  0.48296353  0.54990390  0.09040605     0.03100
H1987       H  0.50122301  0.57609090  0.03740202     0.16100
H1988       H  0.48932952  0.56569310  0.12515584     0.16100
C1989       C  0.47021638  0.52931695  0.10092413     0.37700
C1990       C  0.52052981  0.61202794  0.06212990     0.37700
N1991       N  0.46008071  0.51280178  0.10943956    -0.42600
N1992       N  0.53037588  0.62893723  0.05406289    -0.42600
C1993       C  0.56198693  0.48578067  0.06477337     0.01000
C1994       C  0.56113923  0.51143473  0.06808206    -0.10900
C1995       C  0.58142304  0.52388037  0.07799549     0.03200
C1996       C  0.60277688  0.51051992  0.08562737     0.00900
C1997       C  0.60227866  0.48457053  0.08466965    -0.10800
C1998       C  0.58254278  0.47227460  0.07369169     0.03100
H1999       H  0.54535069  0.52203714  0.06113836     0.16100
H2000       H  0.61853135  0.47396119  0.09052176     0.16100
C2001       C  0.58434490  0.44603552  0.07067046     0.37700
C2002       C  0.58063537  0.55034781  0.07823561     0.37700
N2003       N  0.58581517  0.42499719  0.06816155    -0.42600
N2004       N  0.57978974  0.57157510  0.07833132    -0.42600
C2005       C  0.43179189  0.43114723  0.01014737     0.01000
C2006       C  0.44452661  0.40855460  0.00746472    -0.10900
C2007       C  0.43338831  0.38901803  0.99558542     0.03200
C2008       C  0.40862806  0.39140495  0.98694749     0.00900
C2009       C  0.39622942  0.41422078  0.98870096    -0.10800
C2010       C  0.40765438  0.43406984  0.99992740     0.03100
H2011       H  0.46359629  0.40641884  0.01382907     0.16100
H2012       H  0.37698132  0.41609528  0.98275523     0.16100
C2013       C  0.39400791  0.45717666  0.00113301     0.37700
C2014       C  0.44719694  0.36607994  0.99323147     0.37700
N2015       N  0.38312486  0.47572738  0.00199842    -0.42600
N2016       N  0.45793570  0.34754303  0.99122276    -0.42600
C2017       C  0.40705418  0.48555979  0.89732206     0.01000
C2018       C  0.41815959  0.46606237  0.90976001    -0.10900
C2019       C  0.43282916  0.47041112  0.92996050     0.03200
C2020       C  0.43828216  0.49482722  0.93701344     0.00900
C2021       C  0.42481392  0.51411875  0.92631632    -0.10800
C2022       C  0.40873537  0.50959021  0.90707277     0.03100
H2023       H  0.41636316  0.44750679  0.90320313     0.16100
H2024       H  0.42740800  0.53274652  0.93241230     0.16100
C2025       C  0.39443216  0.53005337  0.89736681     0.37700
C2026       C  0.44112115  0.44922759  0.94347911     0.37700
N2027       N  0.38289914  0.54643506  0.88967807    -0.42600
N2028       N  0.44700525  0.43183856  0.95412643    -0.42600
C2029       C  0.50449327  0.42349542  0.94772583     0.01000
C2030       C  0.49875435  0.43519260  0.92586310    -0.10900
C2031       C  0.48807737  0.42227414  0.90682691     0.03200
C2032       C  0.48400989  0.39680911  0.90879179     0.00900
C2033       C  0.48876852  0.38534257  0.93103789    -0.10800
C2034       C  0.49869706  0.39845108  0.95039986     0.03100
H2035       H  0.50177982  0.45470880  0.92390306     0.16100
H2036       H  0.48684927  0.36562936  0.93261756     0.16100
C2037       C  0.50430796  0.38556757  0.97247267     0.37700
C2038       C  0.48269122  0.43517381  0.88469670     0.37700
N2039       N  0.50904797  0.37544353  0.99022798    -0.42600
N2040       N  0.47822222  0.44544578  0.86695892    -0.42600
loop_ 
_geom_bond_atom_site_label_1 
_geom_bond_atom_site_label_2 
_geom_bond_distance 
_geom_bond_site_symmetry_2 
_ccdc_geom_bond_type 
Zn1           O5   1.812   1_556  S
Zn1           O6   1.930       .  S
Zn1          O10   1.944   1_556  S
Zn1          O17   1.963       .  S
Zn2           O5   1.902   1_556  S
Zn2           O7   2.000   1_556  S
Zn2           O9   2.129       .  S
Zn2          O13   2.027       .  S
Zn3           O5   1.897       .  S
Zn3           O8   2.110       .  S
Zn3          O11   2.010       .  S
Zn3          O14   2.013       .  S
Zn4           O5   1.889   1_556  S
Zn4          O12   2.039   1_556  S
Zn4          O15   2.013       .  S
Zn4          O16   2.117       .  S
O6           C18   1.259       .  A
O7           C19   1.277       .  A
O8           C20   1.284       .  A
O9           C18   1.285       .  A
O10          C20   1.258       .  A
O11          C19   1.278       .  A
O12          C21   1.281       .  A
O13          C22   1.280       .  A
O14          C21   1.275       .  A
O15          C22   1.279       .  A
O16          C23   1.286       .  A
O17          C23   1.264       .  A
C18        C2020   1.491       .  S
C19        C1981   1.494       .  S
C20        C2005   1.481       .  S
C21        C1993   1.485       .  S
C22        C1969   1.503       .  S
C23        C2029   1.487       .  S
Zn24         O28   1.889       .  S
Zn24         O29   2.119       .  S
Zn24         O33   1.982       .  S
Zn24         O40   2.056       .  S
Zn25         O28   1.922   1_545  S
Zn25         O30   1.968       .  S
Zn25         O32   1.972   1_545  S
Zn25         O36   1.955       .  S
Zn26         O28   1.933   1_545  S
Zn26         O31   2.042   1_545  S
Zn26         O34   2.086       .  S
Zn26         O37   2.069       .  S
Zn27         O28   1.886   1_545  S
Zn27         O35   2.021       .  S
Zn27         O38   2.115       .  S
Zn27         O39   2.016   1_545  S
O29          C41   1.282       .  A
O30          C42   1.271       .  A
O31          C43   1.280       .  A
O32          C41   1.259       .  A
O33          C43   1.270       .  A
O34          C42   1.289       .  A
O35          C44   1.271       .  A
O36          C45   1.258       .  A
O37          C44   1.280       .  A
O38          C45   1.279       .  A
O39          C46   1.283       .  A
O40          C46   1.287       .  A
C41        C1900   1.499       .  S
C42        C1912   1.490       .  S
C43        C1960   1.493       .  S
C44        C1933   1.493       .  S
C45        C1921   1.497       .  S
C46        C1948   1.510       .  S
Zn47         O51   1.894       .  S
Zn47         O52   2.146       .  S
Zn47         O56   2.057       .  S
Zn47         O63   2.014       .  S
Zn48         O51   1.818       .  S
Zn48         O53   1.953       .  S
Zn48         O55   1.945       .  S
Zn48         O59   1.965       .  S
Zn49         O51   1.883       .  S
Zn49         O54   2.022       .  S
Zn49         O57   2.135       .  S
Zn49         O60   2.039   1_455  S
Zn50         O51   1.914   1_655  S
Zn50         O58   2.022       .  S
Zn50         O61   2.106       .  S
Zn50         O62   2.014       .  S
O52          C64   1.290       .  A
O53          C65   1.261       .  A
O54          C66   1.280       .  A
O55          C64   1.261       .  A
O56          C66   1.282       .  A
O57          C65   1.288       .  A
O58          C67   1.276       .  A
O59          C68   1.262   1_455  A
O60          C67   1.281       .  A
O61          C68   1.285       .  A
O62          C69   1.279       .  A
O63          C69   1.278   1_455  A
C64        C1837   1.491       .  S
C65        C1861   1.485       .  S
C66        C1849   1.511       .  S
C67        C1873   1.488       .  S
C68        C1825   1.484   1_655  S
C69        C1885   1.500       .  S
Zn70         O74   1.899   1_565  S
Zn70         O75   2.007   1_556  S
Zn70         O79   2.000   1_565  S
Zn70         O86   2.092       .  S
Zn71         O74   1.923   1_664  S
Zn71         O76   2.062   1_565  S
Zn71         O78   2.072   1_655  S
Zn71         O82   2.124       .  S
Zn72         O74   1.898       .  S
Zn72         O77   2.053       .  S
Zn72         O80   2.004   1_556  S
Zn72         O83   2.125   1_455  S
Zn73         O74   1.924   1_565  S
Zn73         O81   1.971   1_465  S
Zn73         O84   1.998   1_455  S
Zn73         O85   1.957       .  S
O75          C87   1.273       .  A
O76          C88   1.282       .  A
O77          C89   1.286       .  A
O78          C87   1.283       .  A
O79          C89   1.279       .  A
O80          C88   1.273   1_455  A
O81          C90   1.258       .  A
O82          C91   1.295   1_554  A
O83          C90   1.283       .  A
O84          C91   1.275       .  A
O85          C92   1.256       .  A
O86          C92   1.276       .  A
C87        C1777   1.510   1_565  S
C88        C1765   1.510   1_655  S
C89        C1753   1.508       .  S
C90        C1801   1.497       .  S
C91        C1789   1.507       .  S
C92        C1816   1.485       .  S
Zn93         O97   1.911       .  S
Zn93         O98   1.993       .  S
Zn93        O102   1.967       .  S
Zn93        O109   1.949       .  S
Zn94         O97   1.928       .  S
Zn94         O99   2.087       .  S
Zn94        O101   2.092       .  S
Zn94        O105   2.031       .  S
Zn95         O97   1.872       .  S
Zn95        O100   2.105       .  S
Zn95        O103   1.967       .  S
Zn95        O106   2.017       .  S
Zn96         O97   1.915       .  S
Zn96        O104   2.023       .  S
Zn96        O107   2.021       .  S
Zn96        O108   2.110       .  S
O98         C110   1.274       .  A
O99         C111   1.282       .  A
O100        C112   1.279       .  A
O101        C110   1.290       .  A
O102        C112   1.257       .  A
O103        C111   1.267       .  A
O104        C113   1.285       .  A
O105        C114   1.278       .  A
O106        C113   1.284       .  A
O107        C114   1.273       .  A
O108        C115   1.278       .  A
O109        C115   1.254       .  A
C110       C1729   1.475       .  S
C111       C1717   1.488       .  S
C112       C1741   1.500       .  S
C113       C1693   1.502       .  S
C114       C1681   1.494       .  S
C115       C1705   1.500       .  S
Zn116       O120   1.846       .  S
Zn116       O121   1.962       .  S
Zn116       O125   1.959       .  S
Zn116       O132   1.959       .  S
Zn117       O120   1.906       .  S
Zn117       O122   2.033       .  S
Zn117       O124   2.100       .  S
Zn117       O128   1.980       .  S
Zn118       O120   1.903       .  S
Zn118       O123   2.138       .  S
Zn118       O126   2.017       .  S
Zn118       O129   2.054       .  S
Zn119       O120   1.924       .  S
Zn119       O127   2.003       .  S
Zn119       O130   2.049       .  S
Zn119       O131   2.122       .  S
O121        C133   1.260       .  A
O122        C134   1.279       .  A
O123        C135   1.289       .  A
O124        C133   1.282       .  A
O125        C135   1.266       .  A
O126        C134   1.279       .  A
O127        C136   1.278       .  A
O128        C137   1.273       .  A
O129        C136   1.282       .  A
O130        C137   1.280       .  A
O131        C138   1.283       .  A
O132        C138   1.261       .  A
C133       C1621   1.480       .  S
C134       C1633   1.503       .  S
C135       C1609   1.507       .  S
C136       C1645   1.503       .  S
C137       C1657   1.488       .  S
C138       C1672   1.499       .  S
Zn139       O143   1.906       .  S
Zn139       O144   1.990       .  S
Zn139       O148   2.113       .  S
Zn139       O155   2.048       .  S
Zn140       O143   1.912       .  S
Zn140       O145   2.084       .  S
Zn140       O147   2.067       .  S
Zn140       O151   2.044       .  S
Zn141       O143   1.917       .  S
Zn141       O146   1.950       .  S
Zn141       O149   2.005       .  S
Zn141       O152   1.950       .  S
Zn142       O143   1.906       .  S
Zn142       O150   2.096       .  S
Zn142       O153   1.991       .  S
Zn142       O154   2.003       .  S
O144        C156   1.271       .  A
O145        C157   1.290       .  A
O146        C158   1.255       .  A
O147        C156   1.282       .  A
O148        C158   1.279       .  A
O149        C157   1.276       .  A
O150        C159   1.275       .  A
O151        C160   1.278       .  A
O152        C159   1.257       .  A
O153        C160   1.272       .  A
O154        C161   1.280       .  A
O155        C161   1.285       .  A
C156       C1585   1.504       .  S
C157       C1600   1.481       .  S
C158       C1573   1.505       .  S
C159       C1564   1.498       .  S
C160       C1549   1.499       .  S
C161       C1537   1.509       .  S
Zn162       O166   2.022       .  S
Zn162       O167   2.129       .  S
Zn162       O171   2.118       .  S
Zn162       O178   2.065       .  S
Zn163       O166   2.015       .  S
Zn163       O168   2.114       .  S
Zn163       O170   2.067       .  S
Zn163       O174   2.122       .  S
Zn164       O166   1.992       .  S
Zn164       O169   2.081       .  S
Zn164       O172   2.057       .  S
Zn164       O175   2.092       .  S
Zn165       O166   1.998       .  S
Zn165       O173   2.101       .  S
Zn165       O176   2.044       .  S
Zn165       O177   2.092       .  S
O167        C179   1.286       .  A
O168        C180   1.285       .  A
O169        C181   1.284       .  A
O170        C179   1.282       .  A
O171        C181   1.284       .  A
O172        C180   1.279       .  A
O173        C182   1.283       .  A
O174        C183   1.285       .  A
O175        C182   1.280       .  A
O176        C183   1.278       .  A
O177        C184   1.279       .  A
O178        C184   1.284       .  A
C179        N185   1.462       .  S
C180        N220   1.454       .  S
C181        N213   1.462       .  S
C182        N199   1.458       .  S
C183        N192   1.456       .  S
C184        N206   1.460       .  S
N185        C189   1.376       .  A
N185        C186   1.376       .  A
C186       C1528   1.506       .  S
C186        C187   1.382       .  A
C187        C188   1.352       .  A
C187        H190   1.082       .  S
C188        C189   1.384       .  A
C188        H191   1.082       .  S
C189       C1540   1.509       .  S
N192        C196   1.368       .  A
N192        C193   1.371       .  A
C193       C2017   1.488       .  S
C193        C194   1.382       .  A
C194        C195   1.356       .  A
C194        H197   1.082       .  S
C195        C196   1.380       .  A
C195        H198   1.083       .  S
C196       C1552   1.488       .  S
N199        C203   1.370       .  A
N199        C200   1.374       .  A
C200       C2032   1.481       .  S
C200        C201   1.379       .  A
C201        C202   1.354       .  A
C201        H204   1.083       .  S
C202        C203   1.381       .  A
C202        H205   1.083       .  S
C203       C1624   1.481       .  S
N206        C210   1.373       .  A
N206        C207   1.368       .  A
C207       C1588   1.498       .  S
C207        C208   1.378       .  A
C208        C209   1.361       .  A
C208        H211   1.082       .  S
C209        C210   1.389       .  A
C209        H212   1.083       .  S
C210       C1669   1.514       .  S
N213        C217   1.372       .  A
N213        C214   1.373       .  A
C214       C1513   1.506       .  S
C214        C215   1.383       .  A
C215        C216   1.359       .  A
C215        H218   1.082       .  S
C216        C217   1.380       .  A
C216        H219   1.083       .  S
C217       C1612   1.503       .  S
N220        C224   1.367       .  A
N220        C221   1.368       .  A
C221       C2008   1.478       .  S
C221        C222   1.382   1_556  A
C222        C223   1.354       .  A
C222        H225   1.083       .  S
C223        C224   1.377   1_554  A
C223        H226   1.083       .  S
C224       C1504   1.474       .  S
Zn227       O231   1.913       .  S
Zn227       O232   2.030       .  S
Zn227       O236   2.120       .  S
Zn227       O243   2.033       .  S
Zn228       O231   1.912   1_554  S
Zn228       O233   2.062   1_554  S
Zn228       O235   2.047       .  S
Zn228       O239   2.033       .  S
Zn229       O231   1.927       .  S
Zn229       O234   1.953       .  S
Zn229       O237   1.987       .  S
Zn229       O240   1.963       .  S
Zn230       O231   1.905       .  S
Zn230       O238   2.122       .  S
Zn230       O241   1.996       .  S
Zn230       O242   2.039       .  S
O232        C244   1.276   1_556  A
O233        C245   1.286       .  A
O234        C246   1.257       .  A
O235        C244   1.279       .  A
O236        C246   1.280       .  A
O237        C245   1.275       .  A
O238        C247   1.281       .  A
O239        C248   1.277       .  A
O240        C247   1.257       .  A
O241        C248   1.272   1_556  A
O242        C249   1.285       .  A
O243        C249   1.283       .  A
C244       C1489   1.509       .  S
C245       C1501   1.477       .  S
C246       C1516   1.502       .  S
C247       C1525   1.499       .  S
C248       C1477   1.499       .  S
C249       C1465   1.492       .  S
Zn250       O254   1.897       .  S
Zn250       O255   2.033       .  S
Zn250       O259   2.008       .  S
Zn250       O266   2.125       .  S
Zn251       O254   1.895       .  S
Zn251       O256   2.049       .  S
Zn251       O258   2.019       .  S
Zn251       O262   2.128       .  S
Zn252       O254   1.911       .  S
Zn252       O257   2.026       .  S
Zn252       O260   2.047       .  S
Zn252       O263   2.159       .  S
Zn253       O254   1.798       .  S
Zn253       O261   1.914       .  S
Zn253       O264   1.968       .  S
Zn253       O265   1.951       .  S
O255        C267   1.279       .  A
O256        C268   1.281       .  A
O257        C269   1.280       .  A
O258        C267   1.280       .  A
O259        C269   1.280       .  A
O260        C268   1.282       .  A
O261        C270   1.256       .  A
O262        C271   1.286       .  A
O263        C270   1.287       .  A
O264        C271   1.265       .  A
O265        C272   1.261       .  A
O266        C272   1.285       .  A
C267       C1417   1.500       .  S
C268       C1456   1.504       .  S
C269       C1444   1.498       .  S
C270       C1429   1.494       .  S
C271       C1405   1.494       .  S
C272       C1393   1.487       .  S
Zn273       O277   1.836       .  S
Zn273       O278   1.920       .  S
Zn273       O282   1.944       .  S
Zn273       O289   1.982       .  S
Zn274       O277   1.931       .  S
Zn274       O279   2.025       .  S
Zn274       O281   2.132       .  S
Zn274       O285   2.035       .  S
Zn275       O277   1.897       .  S
Zn275       O280   2.105       .  S
Zn275       O283   2.041       .  S
Zn275       O286   1.996       .  S
Zn276       O277   1.899       .  S
Zn276       O284   2.032       .  S
Zn276       O287   2.008       .  S
Zn276       O288   2.122       .  S
O278        C290   1.256       .  A
O279        C291   1.278       .  A
O280        C292   1.283       .  A
O281        C290   1.284       .  A
O282        C292   1.258       .  A
O283        C291   1.278       .  A
O284        C293   1.280       .  A
O285        C294   1.281       .  A
O286        C293   1.275       .  A
O287        C294   1.276       .  A
O288        C295   1.287       .  A
O289        C295   1.266       .  A
C290       C1345   1.491       .  S
C291       C1324   1.493       .  S
C292       C1381   1.477       .  S
C293       C1357   1.503       .  S
C294       C1336   1.504       .  S
C295       C1369   1.503       .  S
Zn296       O300   1.963       .  S
Zn296       O301   2.042       .  S
Zn296       O305   2.043       .  S
Zn296       O312   2.077       .  S
Zn297       O300   2.000       .  S
Zn297       O302   2.147       .  S
Zn297       O304   2.138       .  S
Zn297       O308   2.059       .  S
Zn298       O300   1.989       .  S
Zn298       O303   2.090       .  S
Zn298       O306   2.058       .  S
Zn298       O309   2.103       .  S
Zn299       O300   1.984       .  S
Zn299       O307   2.072       .  S
Zn299       O310   2.115       .  S
Zn299       O311   2.096       .  S
O301        C313   1.281       .  A
O302        C314   1.289       .  A
O303        C315   1.282       .  A
O304        C313   1.289       .  A
O305        C315   1.276       .  A
O306        C314   1.282       .  A
O307        C316   1.285       .  A
O308        C317   1.282       .  A
O309        C316   1.283       .  A
O310        C317   1.285       .  A
O311        C318   1.284       .  A
O312        C318   1.280       .  A
C313        N347   1.466       .  S
C314        N354   1.465       .  S
C315        N340   1.448       .  S
C316        N326   1.460       .  S
C317        N333   1.455       .  S
C318        N319   1.455       .  S
N319        C323   1.369       .  A
N319        C320   1.366       .  A
C320       C1309   1.472       .  S
C320        C321   1.379   1_554  A
C321        C322   1.357       .  A
C321        H324   1.083       .  S
C322        C323   1.380   1_556  A
C322        H325   1.083       .  S
C323       C1972   1.476       .  S
N326        C330   1.368       .  A
N326        C327   1.371       .  A
C327       C1996   1.497       .  S
C327        C328   1.384       .  A
C328        C329   1.356       .  A
C328        H331   1.083       .  S
C329        C330   1.377       .  A
C329        H332   1.083       .  S
C330       C1441   1.486       .  S
N333        C337   1.367       .  A
N333        C334   1.372       .  A
C334       C1297   1.489       .  S
C334        C335   1.382       .  A
C335        C336   1.352       .  A
C335        H338   1.083       .  S
C336        C337   1.379       .  A
C336        H339   1.083       .  S
C337       C1420   1.485       .  S
N340        C344   1.364       .  A
N340        C341   1.365       .  A
C341       C1732   1.477       .  S
C341        C342   1.379       .  A
C342        C343   1.361       .  A
C342        H345   1.083       .  S
C343        C344   1.381       .  A
C343        H346   1.083       .  S
C344       C1984   1.474       .  S
N347        C351   1.366       .  A
N347        C348   1.370       .  A
C348       C1288   1.509       .  S
C348        C349   1.385       .  A
C349        C350   1.364       .  A
C349        H352   1.082       .  S
C350        C351   1.383       .  A
C350        H353   1.083       .  S
C351       C1708   1.503       .  S
N354        C358   1.375       .  A
N354        C355   1.376       .  A
C355       C1744   1.508       .  S
C355        C356   1.385       .  A
C356        C357   1.357       .  A
C356        H359   1.082       .  S
C357        C358   1.376       .  A
C357        H360   1.083       .  S
C358       C1453   1.494       .  S
Zn361       O365   1.819   1_556  S
Zn361       O366   1.959       .  S
Zn361       O370   1.951       .  S
Zn361       O377   1.944       .  S
Zn362       O365   1.900       .  S
Zn362       O367   2.016       .  S
Zn362       O369   2.129   1_554  S
Zn362       O373   2.022       .  S
Zn363       O365   1.889       .  S
Zn363       O368   2.126       .  S
Zn363       O371   2.023       .  S
Zn363       O374   2.053       .  S
Zn364       O365   1.900   1_556  S
Zn364       O372   2.022   1_556  S
Zn364       O375   2.000       .  S
Zn364       O376   2.101       .  S
O366        C378   1.263       .  A
O367        C379   1.278       .  A
O368        C380   1.288       .  A
O369        C378   1.286       .  A
O370        C380   1.263   1_556  A
O371        C379   1.282       .  A
O372        C381   1.278       .  A
O373        C382   1.278   1_554  A
O374        C381   1.281       .  A
O375        C382   1.277       .  A
O376        C383   1.283       .  A
O377        C383   1.259       .  A
C378       C1261   1.491       .  S
C379       C1300   1.503       .  S
C380       C1249   1.481       .  S
C381       C1285   1.511       .  S
C382       C1312   1.494   1_556  S
C383       C1273   1.477       .  S
Zn384       O388   2.000       .  S
Zn384       O389   2.064       .  S
Zn384       O393   2.112       .  S
Zn384       O400   2.072       .  S
Zn385       O388   1.992       .  S
Zn385       O390   2.102       .  S
Zn385       O392   2.095       .  S
Zn385       O396   2.041       .  S
Zn386       O388   2.002       .  S
Zn386       O391   2.108       .  S
Zn386       O394   2.102       .  S
Zn386       O397   2.114       .  S
Zn387       O388   2.028       .  S
Zn387       O395   2.097       .  S
Zn387       O398   2.141       .  S
Zn387       O399   2.116       .  S
O389        C401   1.280       .  A
O390        C402   1.286       .  A
O391        C403   1.286       .  A
O392        C401   1.285       .  A
O393        C403   1.285       .  A
O394        C402   1.286       .  A
O395        C404   1.284       .  A
O396        C405   1.275       .  A
O397        C404   1.290       .  A
O398        C405   1.288       .  A
O399        C406   1.284       .  A
O400        C406   1.282       .  A
C401        N428   1.462       .  S
C402        N435   1.473       .  S
C403        N407   1.470       .  S
C404        N421   1.468       .  S
C405        N442   1.467       .  S
C406        N414   1.469       .  S
N407        C411   1.377       .  A
N407        C408   1.379       .  A
C408       C1237   1.495       .  S
C408        C409   1.382       .  A
C409        C410   1.349       .  A
C409        H412   1.083   1_455  S
C410        C411   1.379       .  A
C410        H413   1.083   1_455  S
C411       C1828   1.488       .  S
N414        C418   1.376       .  A
N414        C415   1.370       .  A
C415       C1225   1.487       .  S
C415        C416   1.377       .  A
C416        C417   1.358       .  A
C416        H419   1.083       .  S
C417        C418   1.383       .  A
C417        H420   1.083       .  S
C418       C1348   1.499       .  S
N421        C425   1.381       .  A
N421        C422   1.374       .  A
C422       C1864   1.489       .  S
C422        C423   1.375       .  A
C423        C424   1.351       .  A
C423        H426   1.083       .  S
C424        C425   1.390       .  A
C424        H427   1.081       .  S
C425       C1372   1.520       .  S
N428        C432   1.371       .  A
N428        C429   1.371       .  A
C429       C1213   1.495       .  S
C429        C430   1.380       .  A
C430        C431   1.359       .  A
C430        H433   1.083       .  S
C431        C432   1.385       .  A
C431        H434   1.082       .  S
C432       C1561   1.501       .  S
N435        C439   1.377       .  A
N435        C436   1.372       .  A
C436       C1840   1.503       .  S
C436        C437   1.378       .  A
C437        C438   1.359       .  A
C437        H440   1.082       .  S
C438        C439   1.390       .  A
C438        H441   1.082       .  S
C439       C1576   1.528       .  S
N442        C446   1.372       .  A
N442        C443   1.376       .  A
C443       C1597   1.484       .  S
C443        C444   1.377       .  A
C444        C445   1.352       .  A
C444        H447   1.083       .  S
C445        C446   1.383       .  A
C445        H448   1.083       .  S
C446       C1384   1.478       .  S
Zn449       O453   1.925       .  S
Zn449       O454   1.956       .  S
Zn449       O458   1.951       .  S
Zn449       O465   2.009       .  S
Zn450       O453   1.888       .  S
Zn450       O455   2.035       .  S
Zn450       O457   2.127       .  S
Zn450       O461   2.027   1_655  S
Zn451       O453   1.891       .  S
Zn451       O456   2.124       .  S
Zn451       O459   2.057       .  S
Zn451       O462   1.969   1_655  S
Zn452       O453   1.943   1_455  S
Zn452       O460   2.066       .  S
Zn452       O463   2.041       .  S
Zn452       O464   2.086       .  S
O454        C466   1.255       .  A
O455        C467   1.286       .  A
O456        C468   1.280       .  A
O457        C466   1.282       .  A
O458        C468   1.254       .  A
O459        C467   1.288       .  A
O460        C469   1.279       .  A
O461        C470   1.274       .  A
O462        C469   1.267       .  A
O463        C470   1.279       .  A
O464        C471   1.289   1_455  A
O465        C471   1.279       .  A
C466       C1201   1.496       .  S
C467       C1240   1.515       .  S
C468       C1189   1.500       .  S
C469       C1228   1.486       .  S
C470       C1216   1.500       .  S
C471       C1177   1.503       .  S
Zn472       O476   1.979       .  S
Zn472       O477   2.045       .  S
Zn472       O481   2.060       .  S
Zn472       O488   2.084       .  S
Zn473       O476   2.007       .  S
Zn473       O478   2.073       .  S
Zn473       O480   2.115       .  S
Zn473       O484   2.147       .  S
Zn474       O476   2.017       .  S
Zn474       O479   2.173       .  S
Zn474       O482   2.155       .  S
Zn474       O485   2.089       .  S
Zn475       O476   1.988       .  S
Zn475       O483   2.100       .  S
Zn475       O486   2.070       .  S
Zn475       O487   2.062       .  S
O477        C489   1.278       .  A
O478        C490   1.286       .  A
O479        C491   1.292       .  A
O480        C489   1.283       .  A
O481        C491   1.282       .  A
O482        C490   1.291       .  A
O483        C492   1.283       .  A
O484        C493   1.288       .  A
O485        C492   1.284       .  A
O486        C493   1.283       .  A
O487        C494   1.280       .  A
O488        C494   1.280       .  A
C489        N523   1.454       .  S
C490        N502   1.466       .  S
C491        N509   1.465       .  S
C492        N516   1.458       .  S
C493        N530   1.468       .  S
C494        N495   1.452       .  S
N495        C499   1.370       .  A
N495        C496   1.370       .  A
C496       C1792   1.497       .  S
C496        C497   1.383   1_556  A
C497        C498   1.362       .  A
C497        H500   1.082       .  S
C498        C499   1.379   1_554  A
C498        H501   1.083       .  S
C499       C1252   1.487       .  S
N502        C506   1.375       .  A
N502        C503   1.380       .  A
C503       C1192   1.511       .  S
C503        C504   1.387       .  A
C504        C505   1.353       .  A
C504        H507   1.082       .  S
C505        C506   1.375       .  A
C505        H508   1.083       .  S
C506       C1165   1.494       .  S
N509        C513   1.376       .  A
N509        C510   1.379       .  A
C510       C1204   1.496       .  S
C510        C511   1.383       .  A
C511        C512   1.353       .  A
C511        H514   1.083       .  S
C512        C513   1.376       .  A
C512        H515   1.083       .  S
C513       C1264   1.490       .  S
N516        C520   1.370       .  A
N516        C517   1.372       .  A
C517       C1153   1.491       .  S
C517        C518   1.384       .  A
C518        C519   1.351       .  A
C518        H521   1.083       .  S
C519        C520   1.376       .  A
C519        H522   1.083       .  S
C520       C1276   1.478       .  S
N523        C527   1.369       .  A
N523        C524   1.375       .  A
C524       C1180   1.504       .  S
C524        C525   1.382       .  A
C525        C526   1.356   1_655  A
C525        H528   1.082   1_655  S
C526        C527   1.378   1_455  A
C526        H529   1.083       .  S
C527       C1813   1.483       .  S
N530        C534   1.381       .  A
N530        C531   1.376       .  A
C531       C1144   1.492       .  S
C531        C532   1.374       .  A
C532        C533   1.351       .  A
C532        H535   1.083   1_565  S
C533        C534   1.386       .  A
C533        H536   1.082   1_565  S
C534       C1804   1.508       .  S
Zn537       O541   2.030       .  S
Zn537       O542   2.093       .  S
Zn537       O546   2.130       .  S
Zn537       O553   2.078       .  S
Zn538       O541   1.981       .  S
Zn538       O543   2.065       .  S
Zn538       O545   2.064       .  S
Zn538       O549   2.063       .  S
Zn539       O541   1.985       .  S
Zn539       O544   2.029       .  S
Zn539       O547   2.105       .  S
Zn539       O550   2.115       .  S
Zn540       O541   2.001       .  S
Zn540       O548   2.110       .  S
Zn540       O551   2.137       .  S
Zn540       O552   2.140       .  S
O542        C554   1.282       .  A
O543        C555   1.281       .  A
O544        C556   1.272       .  A
O545        C554   1.282       .  A
O546        C556   1.284       .  A
O547        C555   1.285       .  A
O548        C557   1.288       .  A
O549        C558   1.281       .  A
O550        C557   1.287       .  A
O551        C558   1.288       .  A
O552        C559   1.293       .  A
O553        C559   1.280       .  A
C554        N595   1.464       .  S
C555        N581   1.463       .  S
C556        N567   1.465       .  S
C557        N560   1.471       .  S
C558        N574   1.467       .  S
C559        N588   1.468       .  S
N560        C564   1.378       .  A
N560        C561   1.379       .  A
C561       C1897   1.499       .  S
C561        C562   1.381   1_545  A
C562        C563   1.353       .  A
C562        H565   1.083       .  S
C563        C564   1.383   1_565  A
C563        H566   1.082       .  S
C564       C1129   1.505       .  S
N567        C571   1.374       .  A
N567        C568   1.373       .  A
C568       C1117   1.500       .  S
C568        C569   1.388       .  A
C569        C570   1.357       .  A
C569        H572   1.082       .  S
C570        C571   1.376       .  A
C570        H573   1.083       .  S
C571       C1909   1.491       .  S
N574        C578   1.376       .  A
N574        C575   1.372       .  A
C575       C1636   1.488       .  S
C575        C576   1.375       .  A
C576        C577   1.355       .  A
C576        H579   1.083       .  S
C577        C578   1.386       .  A
C577        H580   1.082       .  S
C578       C1105   1.499       .  S
N581        C585   1.373       .  A
N581        C582   1.367       .  A
C582       C1648   1.490       .  S
C582        C583   1.376       .  A
C583        C584   1.362       .  A
C583        H586   1.083       .  S
C584        C585   1.386       .  A
C584        H587   1.082       .  S
C585       C1924   1.498       .  S
N588        C592   1.375       .  A
N588        C589   1.384       .  A
C589       C1081   1.505       .  S
C589        C590   1.383       .  A
C590        C591   1.353       .  A
C590        H593   1.083       .  S
C591        C592   1.377       .  A
C591        H594   1.083       .  S
C592       C1093   1.482       .  S
N595        C599   1.364       .  A
N595        C596   1.370       .  A
C596       C1069   1.489       .  S
C596        C597   1.382       .  A
C597        C598   1.360       .  A
C597        H600   1.083       .  S
C598        C599   1.378       .  A
C598        H601   1.083       .  S
C599       C1660   1.478       .  S
Zn602       O606   1.899       .  S
Zn602       O607   2.033       .  S
Zn602       O611   2.111       .  S
Zn602       O618   2.005       .  S
Zn603       O606   1.901   1_545  S
Zn603       O608   2.141       .  S
Zn603       O610   2.047   1_545  S
Zn603       O614   2.029       .  S
Zn604       O606   1.827   1_545  S
Zn604       O609   1.961   1_545  S
Zn604       O612   1.934       .  S
Zn604       O615   1.958       .  S
Zn605       O606   1.897       .  S
Zn605       O613   2.128   1_565  S
Zn605       O616   2.024   1_565  S
Zn605       O617   2.033       .  S
O607        C619   1.279       .  A
O608        C620   1.288       .  A
O609        C621   1.265       .  A
O610        C619   1.283       .  A
O611        C621   1.286       .  A
O612        C620   1.258       .  A
O613        C622   1.288       .  A
O614        C623   1.280       .  A
O615        C622   1.261       .  A
O616        C623   1.279       .  A
O617        C624   1.279       .  A
O618        C624   1.277       .  A
C619       C1168   1.508       .  S
C620       C1096   1.485       .  S
C621       C1132   1.500       .  S
C622       C1108   1.488       .  S
C623       C1141   1.505       .  S
C624       C1156   1.504       .  S
Zn625       O629   1.901       .  S
Zn625       O630   1.995       .  S
Zn625       O634   2.062       .  S
Zn625       O641   2.115       .  S
Zn626       O629   1.921       .  S
Zn626       O631   1.995       .  S
Zn626       O633   2.056       .  S
Zn626       O637   2.126       .  S
Zn627       O629   1.931       .  S
Zn627       O632   2.019       .  S
Zn627       O635   2.048       .  S
Zn627       O638   2.124       .  S
Zn628       O629   1.843       .  S
Zn628       O636   1.921       .  S
Zn628       O639   1.992       .  S
Zn628       O640   1.960       .  S
O630        C642   1.275       .  A
O631        C643   1.276       .  A
O632        C644   1.278       .  A
O633        C642   1.283       .  A
O634        C644   1.282       .  A
O635        C643   1.280       .  A
O636        C645   1.255       .  A
O637        C646   1.284       .  A
O638        C645   1.283       .  A
O639        C646   1.264       .  A
O640        C647   1.263       .  A
O641        C647   1.285       .  A
C642       C1033   1.482       .  S
C643       C1045   1.495       .  S
C644       C1057   1.513       .  S
C645       C1072   1.486       .  S
C646       C1084   1.503       .  S
C647       C1120   1.486       .  S
Zn648       O652   1.999       .  S
Zn648       O653   2.059       .  S
Zn648       O657   2.108       .  S
Zn648       O664   2.100       .  S
Zn649       O652   2.001       .  S
Zn649       O654   2.102       .  S
Zn649       O656   2.110       .  S
Zn649       O660   2.066       .  S
Zn650       O652   1.989       .  S
Zn650       O655   2.052       .  S
Zn650       O658   2.088       .  S
Zn650       O661   2.084       .  S
Zn651       O652   1.998       .  S
Zn651       O659   2.078       .  S
Zn651       O662   2.110       .  S
Zn651       O663   2.106       .  S
O653        C665   1.282       .  A
O654        C666   1.283       .  A
O655        C667   1.280       .  A
O656        C665   1.284       .  A
O657        C667   1.283       .  A
O658        C666   1.283       .  A
O659        C668   1.284       .  A
O660        C669   1.284       .  A
O661        C668   1.280       .  A
O662        C669   1.283       .  A
O663        C670   1.285       .  A
O664        C670   1.284       .  A
C665        N706   1.456       .  S
C666        N671   1.458       .  S
C667        N699   1.453       .  S
C668        N692   1.453       .  S
C669        N685   1.461       .  S
C670        N678   1.461       .  S
N671        C675   1.373       .  A
N671        C672   1.370       .  A
C672       C1333   1.478       .  S
C672        C673   1.378       .  A
C673        C674   1.355       .  A
C673        H676   1.083       .  S
C674        C675   1.380       .  A
C674        H677   1.083       .  S
C675       C1021   1.480       .  S
N678        C682   1.370       .  A
N678        C679   1.371       .  A
C679       C1696   1.473       .  S
C679        C680   1.379       .  A
C680        C681   1.351       .  A
C680        H683   1.083       .  S
C681        C682   1.379       .  A
C681        H684   1.083       .  S
C682       C1957   1.472       .  S
N685        C689   1.370       .  A
N685        C686   1.373       .  A
C686       C1321   1.510       .  S
C686        C687   1.385       .  A
C687        C688   1.359       .  A
C687        H690   1.083       .  S
C688        C689   1.383       .  A
C688        H691   1.082       .  S
C689       C1945   1.506       .  S
N692        C696   1.366       .  A
N692        C693   1.368       .  A
C693       C1360   1.492       .  S
C693        C694   1.383       .  A
C694        C695   1.357       .  A
C694        H697   1.083       .  S
C695        C696   1.378       .  A
C695        H698   1.083       .  S
C696       C1720   1.485       .  S
N699        C703   1.369       .  A
N699        C700   1.370       .  A
C700       C1684   1.492       .  S
C700        C701   1.381       .  A
C701        C702   1.358       .  A
C701        H704   1.083       .  S
C702        C703   1.381       .  A
C702        H705   1.083       .  S
C703       C1009   1.495       .  S
N706        C710   1.371       .  A
N706        C707   1.367       .  A
C707       C1936   1.499       .  S
C707        C708   1.382       .  A
C708        C709   1.363       .  A
C708        H711   1.083       .  S
C709        C710   1.383       .  A
C709        H712   1.082   1_565  S
C710        C997   1.502       .  S
Zn713       O717   1.918       .  S
Zn713       O718   2.002   1_545  S
Zn713       O722   1.944       .  S
Zn713       O729   1.952       .  S
Zn714       O717   1.908       .  S
Zn714       O719   2.050   1_545  S
Zn714       O721   2.083   1_545  S
Zn714       O725   2.047       .  S
Zn715       O717   1.906       .  S
Zn715       O720   2.114   1_545  S
Zn715       O723   2.018       .  S
Zn715       O726   2.036       .  S
Zn716       O717   1.898       .  S
Zn716       O724   2.038       .  S
Zn716       O727   1.985       .  S
Zn716       O728   2.115       .  S
O718        C730   1.275       .  A
O719        C731   1.281   1_565  A
O720        C732   1.278       .  A
O721        C730   1.290       .  A
O722        C732   1.255   1_545  A
O723        C731   1.274       .  A
O724        C733   1.284       .  A
O725        C734   1.280       .  A
O726        C733   1.284       .  A
O727        C734   1.272       .  A
O728        C735   1.278       .  A
O729        C735   1.256       .  A
C730       C1012   1.500       .  S
C731        C961   1.501       .  S
C732       C1024   1.500       .  S
C733        C973   1.489       .  S
C734        C985   1.501       .  S
C735       C1000   1.496       .  S
Zn736       O740   1.992       .  S
Zn736       O741   2.061       .  S
Zn736       O745   2.049       .  S
Zn736       O752   2.072       .  S
Zn737       O740   2.023       .  S
Zn737       O742   2.097       .  S
Zn737       O744   2.114       .  S
Zn737       O748   2.123       .  S
Zn738       O740   2.013       .  S
Zn738       O743   2.100       .  S
Zn738       O746   2.066       .  S
Zn738       O749   2.097       .  S
Zn739       O740   1.998       .  S
Zn739       O747   2.074       .  S
Zn739       O750   2.054       .  S
Zn739       O751   2.083       .  S
O741        C753   1.278       .  A
O742        C754   1.284       .  A
O743        C755   1.281       .  A
O744        C753   1.285       .  A
O745        C755   1.280       .  A
O746        C754   1.280       .  A
O747        C756   1.279       .  A
O748        C757   1.285       .  A
O749        C756   1.283       .  A
O750        C757   1.281       .  A
O751        C758   1.280       .  A
O752        C758   1.279       .  A
C753        N794   1.454       .  S
C754        N787   1.451       .  S
C755        N759   1.457       .  S
C756        N773   1.454       .  S
C757        N780   1.460       .  S
C758        N766   1.451       .  S
N759        C763   1.369       .  A
N759        C760   1.367       .  A
C760       C1468   1.493       .  S
C760        C761   1.381       .  A
C761        C762   1.361       .  A
C761        H764   1.083       .  S
C762        C763   1.386       .  A
C762        H765   1.082       .  S
C763       C1756   1.510       .  S
N766        C770   1.372       .  A
N766        C767   1.370       .  A
C767        C964   1.485       .  S
C767        C768   1.378   1_545  A
C768        C769   1.361       .  A
C768        H771   1.083       .  S
C769        C770   1.381   1_565  A
C769        H772   1.083       .  S
C770       C1780   1.491       .  S
N773        C777   1.375       .  A
N773        C774   1.372       .  A
C774       C1768   1.487       .  S
C774        C775   1.379   1_455  A
C775        C776   1.359       .  A
C775        H778   1.083       .  S
C776        C777   1.381   1_655  A
C776        H779   1.083       .  S
C777        C949   1.493       .  S
N780        C784   1.372       .  A
N780        C781   1.365       .  A
C781        C976   1.489       .  S
C781        C782   1.380       .  A
C782        C783   1.358       .  A
C782        H785   1.083       .  S
C783        C784   1.386       .  A
C783        H786   1.080       .  S
C784        C940   1.504       .  S
N787        C791   1.365       .  A
N787        C788   1.368       .  A
C788       C1480   1.476       .  S
C788        C789   1.380       .  A
C789        C790   1.358       .  A
C789        H792   1.083       .  S
C790        C791   1.379       .  A
C790        H793   1.083       .  S
C791        C925   1.474       .  S
N794        C798   1.373       .  A
N794        C795   1.368       .  A
C795        C988   1.479       .  S
C795        C796   1.380       .  A
C796        C797   1.358       .  A
C796        H799   1.083       .  S
C797        C798   1.380       .  A
C797        H800   1.083       .  S
C798       C1492   1.484       .  S
Zn801       O805   1.995       .  S
Zn801       O806   2.097       .  S
Zn801       O810   2.020       .  S
Zn801       O817   2.077       .  S
Zn802       O805   1.997       .  S
Zn802       O807   2.107       .  S
Zn802       O809   2.119       .  S
Zn802       O813   2.100       .  S
Zn803       O805   2.014       .  S
Zn803       O808   2.136       .  S
Zn803       O811   2.090       .  S
Zn803       O814   2.116       .  S
Zn804       O805   2.002       .  S
Zn804       O812   2.113       .  S
Zn804       O815   2.084       .  S
Zn804       O816   2.069       .  S
O806        C818   1.283       .  A
O807        C819   1.286       .  A
O808        C820   1.286       .  A
O809        C818   1.288       .  A
O810        C820   1.272       .  A
O811        C819   1.283       .  A
O812        C821   1.285       .  A
O813        C822   1.285       .  A
O814        C821   1.286       .  A
O815        C822   1.284       .  A
O816        C823   1.282       .  A
O817        C823   1.281       .  A
C818        N838   1.472       .  S
C819        N852   1.467       .  S
C820        N824   1.465       .  S
C821        N859   1.474       .  S
C822        N845   1.462       .  S
C823        N831   1.460       .  S
N824        C828   1.372       .  A
N824        C825   1.374       .  A
C825        C913   1.490       .  S
C825        C826   1.375       .  A
C826        C827   1.359       .  A
C826        H829   1.083       .  S
C827        C828   1.386       .  A
C827        H830   1.083       .  S
C828       C1396   1.490       .  S
N831        C835   1.362       .  A
N831        C832   1.366       .  A
C832        C901   1.498       .  S
C832        C833   1.387       .  A
C833        C834   1.363       .  A
C833        H836   1.082       .  S
C834        C835   1.377       .  A
C834        H837   1.083       .  S
C835       C1036   1.484       .  S
N838        C842   1.374       .  A
N838        C839   1.380       .  A
C839        C889   1.516       .  S
C839        C840   1.386       .  A
C840        C841   1.356       .  A
C840        H843   1.082   1_655  S
C841        C842   1.378       .  A
C841        H844   1.083   1_655  S
C842       C1852   1.498       .  S
N845        C849   1.372       .  A
N845        C846   1.369       .  A
C846       C1048   1.478       .  S
C846        C847   1.378       .  A
C847        C848   1.354       .  A
C847        H850   1.083       .  S
C848        C849   1.381       .  A
C848        H851   1.083       .  S
C849       C1888   1.481       .  S
N852        C856   1.379       .  A
N852        C853   1.379       .  A
C853       C1408   1.484       .  S
C853        C854   1.376       .  A
C854        C855   1.351       .  A
C854        H857   1.083       .  S
C855        C856   1.383       .  A
C855        H858   1.083       .  S
C856       C1876   1.492       .  S
N859        C863   1.377       .  A
N859        C860   1.374       .  A
C860       C1432   1.491       .  S
C860        C861   1.377       .  A
C861        C862   1.356       .  A
C861        H864   1.083       .  S
C862        C863   1.384       .  A
C862        H865   1.083       .  S
C863       C1060   1.499       .  S
Zn866       O870   1.918       .  S
Zn866       O871   2.065   1_455  S
Zn866       O875   2.040       .  S
Zn866       O882   2.107   1_455  S
Zn867       O870   1.896       .  S
Zn867       O872   2.003       .  S
Zn867       O874   2.024       .  S
Zn867       O878   2.077   1_455  S
Zn868       O870   1.896       .  S
Zn868       O873   2.001       .  S
Zn868       O876   2.050       .  S
Zn868       O879   2.123       .  S
Zn869       O870   1.913   1_655  S
Zn869       O877   1.977   1_655  S
Zn869       O880   1.954       .  S
Zn869       O881   1.961       .  S
O871        C883   1.282       .  A
O872        C884   1.280       .  A
O873        C885   1.273       .  A
O874        C883   1.276   1_455  A
O875        C885   1.281       .  A
O876        C884   1.284       .  A
O877        C886   1.261       .  A
O878        C887   1.275       .  A
O879        C886   1.283       .  A
O880        C887   1.259       .  A
O881        C888   1.270       .  A
O882        C888   1.291       .  A
C883        C952   1.511   1_655  S
C884        C937   1.503       .  S
C885        C928   1.493       .  S
C886        C892   1.504       .  S
C887        C904   1.491       .  S
C888        C916   1.497       .  S
C889        C890   1.415       .  A
C889        C894   1.416   1_655  A
C890        C891   1.406   1_655  A
C890        H895   1.084       .  S
C891        C892   1.412       .  A
C891        C898   1.444       .  S
C892        C893   1.414       .  A
C893        C894   1.417       .  A
C893        H896   1.085       .  S
C894        C897   1.442   1_455  S
C897        N899   1.157       .  T
C898        N900   1.157       .  T
C901        C902   1.410       .  A
C901        C906   1.416       .  A
C902        C903   1.403       .  A
C902        H907   1.085       .  S
C903        C904   1.413       .  A
C903        C910   1.444       .  S
C904        C905   1.408       .  A
C905        C906   1.403       .  A
C905        H908   1.085       .  S
C906        C909   1.443       .  S
C909        N911   1.157       .  T
C910        N912   1.157       .  T
C913        C914   1.397       .  A
C913        C918   1.417       .  A
C914        C915   1.397       .  A
C914        H919   1.081       .  S
C915        C916   1.426       .  A
C915        C922   1.445       .  S
C916        C917   1.403       .  A
C917        C918   1.407       .  A
C917        H920   1.084       .  S
C918        C921   1.444       .  S
C921        N923   1.157       .  T
C922        N924   1.157       .  T
C925        C926   1.404       .  A
C925        C930   1.408       .  A
C926        C927   1.406       .  A
C926        H931   1.084       .  S
C927        C928   1.417       .  A
C927        C934   1.443       .  S
C928        C929   1.408       .  A
C929        C930   1.402       .  A
C929        H932   1.081       .  S
C930        C933   1.444       .  S
C933        N935   1.157       .  T
C934        N936   1.157       .  T
C937        C938   1.407       .  A
C937        C942   1.418       .  A
C938        C939   1.400       .  A
C938        H943   1.085       .  S
C939        C940   1.419       .  A
C939        C946   1.444       .  S
C940        C941   1.409       .  A
C941        C942   1.411       .  A
C941        H944   1.084       .  S
C942        C945   1.443       .  S
C945        N947   1.157       .  T
C946        N948   1.157       .  T
C949        C950   1.408       .  A
C949        C954   1.409       .  A
C950        C951   1.406   1_455  A
C950        H955   1.085   1_455  S
C951        C952   1.418   1_655  A
C951        C958   1.444       .  S
C952        C953   1.415       .  A
C953        C954   1.412       .  A
C953        H956   1.081       .  S
C954        C957   1.443       .  S
C957        N959   1.157       .  T
C958        N960   1.157       .  T
C961        C962   1.408       .  A
C961        C966   1.418       .  A
C962        C963   1.405       .  A
C962        H967   1.084       .  S
C963        C964   1.411       .  A
C963        C970   1.443       .  S
C964        C965   1.406       .  A
C965        C966   1.409       .  A
C965        H968   1.085       .  S
C966        C969   1.443       .  S
C969        N971   1.157       .  T
C970        N972   1.157       .  T
C973        C974   1.408       .  A
C973        C978   1.409       .  A
C974        C975   1.406       .  A
C974        H979   1.082       .  S
C975        C976   1.405       .  A
C975        C982   1.442       .  S
C976        C977   1.411       .  A
C977        C978   1.408       .  A
C977        H980   1.085       .  S
C978        C981   1.443       .  S
C981        N983   1.157       .  T
C982        N984   1.157       .  T
C985        C986   1.415       .  A
C985        C990   1.416       .  A
C986        C987   1.403       .  A
C986        H991   1.084       .  S
C987        C988   1.406       .  A
C987        C994   1.444       .  S
C988        C989   1.406       .  A
C989        C990   1.404       .  A
C989        H992   1.085       .  S
C990        C993   1.443       .  S
C993        N995   1.157       .  T
C994        N996   1.157       .  T
C997        C998   1.411   1_565  A
C997       C1002   1.414   1_565  A
C998        C999   1.410       .  A
C998       H1003   1.085   1_545  S
C999       C1000   1.414       .  A
C999       C1006   1.443       .  S
C1000      C1001   1.409       .  A
C1001      C1002   1.405       .  A
C1001      H1004   1.085       .  S
C1002      C1005   1.444       .  S
C1005      N1007   1.157       .  T
C1006      N1008   1.157       .  T
C1009      C1010   1.400       .  A
C1009      C1014   1.420       .  A
C1010      C1011   1.408       .  A
C1010      H1015   1.084       .  S
C1011      C1012   1.427       .  A
C1011      C1018   1.444       .  S
C1012      C1013   1.401       .  A
C1013      C1014   1.398       .  A
C1013      H1016   1.084       .  S
C1014      C1017   1.445       .  S
C1017      N1019   1.157       .  T
C1018      N1020   1.157       .  T
C1021      C1022   1.409       .  A
C1021      C1026   1.407       .  A
C1022      C1023   1.408       .  A
C1022      H1027   1.085       .  S
C1023      C1024   1.414       .  A
C1023      C1030   1.443       .  S
C1024      C1025   1.413       .  A
C1025      C1026   1.405       .  A
C1025      H1028   1.084       .  S
C1026      C1029   1.444       .  S
C1029      N1031   1.157       .  T
C1030      N1032   1.157       .  T
C1033      C1034   1.398       .  A
C1033      C1038   1.418       .  A
C1034      C1035   1.408       .  A
C1034      H1039   1.084       .  S
C1035      C1036   1.422       .  A
C1035      C1042   1.444       .  S
C1036      C1037   1.392       .  A
C1037      C1038   1.396       .  A
C1037      H1040   1.084       .  S
C1038      C1041   1.439       .  S
C1041      N1043   1.155       .  T
C1042      N1044   1.157       .  T
C1045      C1046   1.411       .  A
C1045      C1050   1.414       .  A
C1046      C1047   1.396       .  A
C1046      H1051   1.085       .  S
C1047      C1048   1.405       .  A
C1047      C1054   1.445       .  S
C1048      C1049   1.409       .  A
C1049      C1050   1.412       .  A
C1049      H1052   1.085       .  S
C1050      C1053   1.442       .  S
C1053      N1055   1.157       .  T
C1054      N1056   1.157       .  T
C1057      C1058   1.412       .  A
C1057      C1062   1.421       .  A
C1058      C1059   1.403       .  A
C1058      H1063   1.084       .  S
C1059      C1060   1.414       .  A
C1059      C1066   1.445       .  S
C1060      C1061   1.409       .  A
C1061      C1062   1.417       .  A
C1061      H1064   1.084       .  S
C1062      C1065   1.442       .  S
C1065      N1067   1.157       .  T
C1066      N1068   1.157       .  T
C1069      C1070   1.390       .  A
C1069      C1074   1.426       .  A
C1070      C1071   1.390       .  A
C1070      H1075   1.080       .  S
C1071      C1072   1.423       .  A
C1071      C1078   1.442       .  S
C1072      C1073   1.397       .  A
C1073      C1074   1.407       .  A
C1073      H1076   1.084       .  S
C1074      C1077   1.444       .  S
C1077      N1079   1.157       .  T
C1078      N1080   1.156       .  T
C1081      C1082   1.409       .  A
C1081      C1086   1.420       .  A
C1082      C1083   1.420       .  A
C1082      H1087   1.084       .  S
C1083      C1084   1.420       .  A
C1083      C1090   1.442       .  S
C1084      C1085   1.403       .  A
C1085      C1086   1.404       .  A
C1085      H1088   1.084       .  S
C1086      C1089   1.446       .  S
C1089      N1091   1.157       .  T
C1090      N1092   1.157       .  T
C1093      C1094   1.401       .  A
C1093      C1098   1.416       .  A
C1094      C1095   1.404       .  A
C1094      H1099   1.085       .  S
C1095      C1096   1.416       .  A
C1095      C1102   1.443       .  S
C1096      C1097   1.404       .  A
C1097      C1098   1.407       .  A
C1097      H1100   1.084       .  S
C1098      C1101   1.444       .  S
C1101      N1103   1.157       .  T
C1102      N1104   1.157       .  T
C1105      C1106   1.405       .  A
C1105      C1110   1.422       .  A
C1106      C1107   1.410       .  A
C1106      H1111   1.085       .  S
C1107      C1108   1.418       .  A
C1107      C1114   1.444       .  S
C1108      C1109   1.399       .  A
C1109      C1110   1.402       .  A
C1109      H1112   1.085       .  S
C1110      C1113   1.445       .  S
C1113      N1115   1.157       .  T
C1114      N1116   1.157       .  T
C1117      C1118   1.411       .  A
C1117      C1122   1.415       .  A
C1118      C1119   1.401       .  A
C1118      H1123   1.085       .  S
C1119      C1120   1.410       .  A
C1119      C1126   1.445       .  S
C1120      C1121   1.410       .  A
C1121      C1122   1.410       .  A
C1121      H1124   1.085       .  S
C1122      C1125   1.442       .  S
C1125      N1127   1.157       .  T
C1126      N1128   1.157       .  T
C1129      C1130   1.414       .  A
C1129      C1134   1.412       .  A
C1130      C1131   1.404   1_545  A
C1130      H1135   1.085       .  S
C1131      C1132   1.411       .  A
C1131      C1138   1.444       .  S
C1132      C1133   1.414   1_565  A
C1133      C1134   1.409       .  A
C1133      H1136   1.084       .  S
C1134      C1137   1.442       .  S
C1137      N1139   1.157       .  T
C1138      N1140   1.158       .  T
C1141      C1142   1.410       .  A
C1141      C1146   1.422   1_545  A
C1142      C1143   1.408       .  A
C1142      H1147   1.084       .  S
C1143      C1144   1.413   1_545  A
C1143      C1150   1.442       .  S
C1144      C1145   1.405       .  A
C1145      C1146   1.405       .  A
C1145      H1148   1.085       .  S
C1146      C1149   1.444       .  S
C1149      N1151   1.158       .  T
C1150      N1152   1.157       .  T
C1153      C1154   1.406       .  A
C1153      C1158   1.411       .  A
C1154      C1155   1.400       .  A
C1154      H1159   1.086       .  S
C1155      C1156   1.419       .  A
C1155      C1162   1.444       .  S
C1156      C1157   1.413       .  A
C1157      C1158   1.410       .  A
C1157      H1160   1.082       .  S
C1158      C1161   1.442       .  S
C1161      N1163   1.157       .  T
C1162      N1164   1.157       .  T
C1165      C1166   1.406       .  A
C1165      C1170   1.413       .  A
C1166      C1167   1.412       .  A
C1166      H1171   1.085       .  S
C1167      C1168   1.421       .  A
C1167      C1174   1.442       .  S
C1168      C1169   1.410       .  A
C1169      C1170   1.405       .  A
C1169      H1172   1.084       .  S
C1170      C1173   1.445       .  S
C1173      N1175   1.157       .  T
C1174      N1176   1.157       .  T
C1177      C1178   1.412       .  A
C1177      C1182   1.414   1_655  A
C1178      C1179   1.404       .  A
C1178      H1183   1.085       .  S
C1179      C1180   1.407       .  A
C1179      C1186   1.431       .  S
C1180      C1181   1.412   1_655  A
C1181      C1182   1.406       .  A
C1181      H1184   1.085       .  S
C1182      C1185   1.443       .  S
C1185      N1187   1.157       .  T
C1186      N1188   1.153       .  T
C1189      C1190   1.414       .  A
C1189      C1194   1.412       .  A
C1190      C1191   1.413       .  A
C1190      H1195   1.085       .  S
C1191      C1192   1.414       .  A
C1191      C1198   1.442       .  S
C1192      C1193   1.415       .  A
C1193      C1194   1.407       .  A
C1193      H1196   1.085       .  S
C1194      C1197   1.444       .  S
C1197      N1199   1.157   1_655  T
C1198      N1200   1.157       .  T
C1201      C1202   1.401       .  A
C1201      C1206   1.420       .  A
C1202      C1203   1.406       .  A
C1202      H1207   1.085       .  S
C1203      C1204   1.420       .  A
C1203      C1210   1.442       .  S
C1204      C1205   1.405       .  A
C1205      C1206   1.412       .  A
C1205      H1208   1.085       .  S
C1206      C1209   1.444       .  S
C1209      N1211   1.157       .  T
C1210      N1212   1.156       .  T
C1213      C1214   1.407       .  A
C1213      C1218   1.413       .  A
C1214      C1215   1.412       .  A
C1214      H1219   1.083       .  S
C1215      C1216   1.417       .  A
C1215      C1222   1.442       .  S
C1216      C1217   1.408       .  A
C1217      C1218   1.404       .  A
C1217      H1220   1.084       .  S
C1218      C1221   1.445       .  S
C1221      N1223   1.157       .  T
C1222      N1224   1.157       .  T
C1225      C1226   1.394       .  A
C1225      C1230   1.422       .  A
C1226      C1227   1.396       .  A
C1226      H1231   1.082       .  S
C1227      C1228   1.416       .  A
C1227      C1234   1.436       .  S
C1228      C1229   1.396       .  A
C1229      C1230   1.408       .  A
C1229      H1232   1.084       .  S
C1230      C1233   1.440       .  S
C1233      N1235   1.156       .  T
C1234      N1236   1.154       .  T
C1237      C1238   1.406       .  A
C1237      C1242   1.412       .  A
C1238      C1239   1.402   1_455  A
C1238      H1243   1.086       .  S
C1239      C1240   1.424       .  A
C1239      C1246   1.444       .  S
C1240      C1241   1.417       .  A
C1241      C1242   1.418   1_655  A
C1241      H1244   1.084       .  S
C1242      C1245   1.443       .  S
C1245      N1247   1.157       .  T
C1246      N1248   1.157       .  T
C1249      C1250   1.404       .  A
C1249      C1254   1.413   1_554  A
C1250      C1251   1.405       .  A
C1250      H1255   1.085       .  S
C1251      C1252   1.413   1_554  A
C1251      C1258   1.443       .  S
C1252      C1253   1.407       .  A
C1253      C1254   1.407       .  A
C1253      H1256   1.085       .  S
C1254      C1257   1.444       .  S
C1257      N1259   1.157       .  T
C1258      N1260   1.157       .  T
C1261      C1262   1.406       .  A
C1261      C1266   1.413       .  A
C1262      C1263   1.410       .  A
C1262      H1267   1.081       .  S
C1263      C1264   1.412       .  A
C1263      C1270   1.443       .  S
C1264      C1265   1.408       .  A
C1265      C1266   1.406       .  A
C1265      H1268   1.084       .  S
C1266      C1269   1.444   1_556  S
C1269      N1271   1.157       .  T
C1270      N1272   1.157       .  T
C1273      C1274   1.401       .  A
C1273      C1278   1.413       .  A
C1274      C1275   1.403       .  A
C1274      H1279   1.085       .  S
C1275      C1276   1.416       .  A
C1275      C1282   1.441       .  S
C1276      C1277   1.404       .  A
C1277      C1278   1.400       .  A
C1277      H1280   1.086       .  S
C1278      C1281   1.444       .  S
C1281      N1283   1.157       .  T
C1282      N1284   1.156       .  T
C1285      C1286   1.414       .  A
C1285      C1290   1.420       .  A
C1286      C1287   1.413       .  A
C1286      H1291   1.085       .  S
C1287      C1288   1.417       .  A
C1287      C1294   1.443       .  S
C1288      C1289   1.407       .  A
C1289      C1290   1.404       .  A
C1289      H1292   1.084       .  S
C1290      C1293   1.444       .  S
C1293      N1295   1.157   1_554  T
C1294      N1296   1.157       .  T
C1297      C1298   1.402       .  A
C1297      C1302   1.413       .  A
C1298      C1299   1.409       .  A
C1298      H1303   1.084       .  S
C1299      C1300   1.424       .  A
C1299      C1306   1.443       .  S
C1300      C1301   1.409       .  A
C1301      C1302   1.400       .  A
C1301      H1304   1.084       .  S
C1302      C1305   1.445       .  S
C1305      N1307   1.157       .  T
C1306      N1308   1.157       .  T
C1309      C1310   1.404       .  A
C1309      C1314   1.407       .  A
C1310      C1311   1.404       .  A
C1310      H1315   1.085       .  S
C1311      C1312   1.416       .  A
C1311      C1318   1.443       .  S
C1312      C1313   1.412       .  A
C1313      C1314   1.400       .  A
C1313      H1316   1.084       .  S
C1314      C1317   1.446       .  S
C1317      N1319   1.157       .  T
C1318      N1320   1.157       .  T
C1321      C1322   1.418       .  A
C1321      C1326   1.410       .  A
C1322      C1323   1.405       .  A
C1322      H1327   1.085       .  S
C1323      C1324   1.406       .  A
C1323      C1330   1.444       .  S
C1324      C1325   1.413       .  A
C1325      C1326   1.412       .  A
C1325      H1328   1.085       .  S
C1326      C1329   1.442       .  S
C1329      N1331   1.157       .  T
C1330      N1332   1.157       .  T
C1333      C1334   1.401       .  A
C1333      C1338   1.410       .  A
C1334      C1335   1.405       .  A
C1334      H1339   1.085       .  S
C1335      C1336   1.424       .  A
C1335      C1342   1.444       .  S
C1336      C1337   1.411       .  A
C1337      C1338   1.405       .  A
C1337      H1340   1.084       .  S
C1338      C1341   1.444       .  S
C1341      N1343   1.157       .  T
C1342      N1344   1.157       .  T
C1345      C1346   1.395       .  A
C1345      C1350   1.423       .  A
C1346      C1347   1.406       .  A
C1346      H1351   1.084       .  S
C1347      C1348   1.431       .  A
C1347      C1354   1.443       .  S
C1348      C1349   1.394       .  A
C1349      C1350   1.397       .  A
C1349      H1352   1.078       .  S
C1350      C1353   1.441       .  S
C1353      N1355   1.156       .  T
C1354      N1356   1.157       .  T
C1357      C1358   1.412       .  A
C1357      C1362   1.424       .  A
C1358      C1359   1.409       .  A
C1358      H1363   1.084       .  S
C1359      C1360   1.413       .  A
C1359      C1366   1.443       .  S
C1360      C1361   1.402       .  A
C1361      C1362   1.400       .  A
C1361      H1364   1.085       .  S
C1362      C1365   1.445       .  S
C1365      N1367   1.158       .  T
C1366      N1368   1.157       .  T
C1369      C1370   1.416       .  A
C1369      C1374   1.410       .  A
C1370      C1371   1.422       .  A
C1370      H1375   1.084       .  S
C1371      C1372   1.418       .  A
C1371      C1378   1.441       .  S
C1372      C1373   1.414       .  A
C1373      C1374   1.399       .  A
C1373      H1376   1.083       .  S
C1374      C1377   1.445       .  S
C1377      N1379   1.157       .  T
C1378      N1380   1.157       .  T
C1381      C1382   1.409       .  A
C1381      C1386   1.411       .  A
C1382      C1383   1.405       .  A
C1382      H1387   1.084       .  S
C1383      C1384   1.409       .  A
C1383      C1390   1.443       .  S
C1384      C1385   1.408       .  A
C1385      C1386   1.399       .  A
C1385      H1388   1.085       .  S
C1386      C1389   1.445       .  S
C1389      N1391   1.157       .  T
C1390      N1392   1.157       .  T
C1393      C1394   1.404       .  A
C1393      C1398   1.418       .  A
C1394      C1395   1.405       .  A
C1394      H1399   1.085       .  S
C1395      C1396   1.418       .  A
C1395      C1402   1.444       .  S
C1396      C1397   1.403       .  A
C1397      C1398   1.406       .  A
C1397      H1400   1.085       .  S
C1398      C1401   1.444       .  S
C1401      N1403   1.157       .  T
C1402      N1404   1.157       .  T
C1405      C1406   1.407       .  A
C1405      C1410   1.416       .  A
C1406      C1407   1.406       .  A
C1406      H1411   1.085       .  S
C1407      C1408   1.414       .  A
C1407      C1414   1.444       .  S
C1408      C1409   1.406       .  A
C1409      C1410   1.409       .  A
C1409      H1412   1.085       .  S
C1410      C1413   1.443       .  S
C1413      N1415   1.157       .  T
C1414      N1416   1.157       .  T
C1417      C1418   1.412       .  A
C1417      C1422   1.421       .  A
C1418      C1419   1.411       .  A
C1418      H1423   1.084       .  S
C1419      C1420   1.413       .  A
C1419      C1426   1.443       .  S
C1420      C1421   1.400       .  A
C1421      C1422   1.396       .  A
C1421      H1424   1.086       .  S
C1422      C1425   1.443       .  S
C1425      N1427   1.157       .  T
C1426      N1428   1.157       .  T
C1429      C1430   1.399       .  A
C1429      C1434   1.424       .  A
C1430      C1431   1.412       .  A
C1430      H1435   1.084       .  S
C1431      C1432   1.425       .  A
C1431      C1438   1.444       .  S
C1432      C1433   1.391       .  A
C1433      C1434   1.393       .  A
C1433      H1436   1.082       .  S
C1434      C1437   1.440       .  S
C1437      N1439   1.155       .  T
C1438      N1440   1.157       .  T
C1441      C1442   1.405       .  A
C1441      C1446   1.410       .  A
C1442      C1443   1.408       .  A
C1442      H1447   1.086       .  S
C1443      C1444   1.419       .  A
C1443      C1450   1.443       .  S
C1444      C1445   1.411       .  A
C1445      C1446   1.400       .  A
C1445      H1448   1.086       .  S
C1446      C1449   1.445       .  S
C1449      N1451   1.157       .  T
C1450      N1452   1.157       .  T
C1453      C1454   1.409       .  A
C1453      C1458   1.411       .  A
C1454      C1455   1.412       .  A
C1454      H1459   1.085       .  S
C1455      C1456   1.415       .  A
C1455      C1462   1.442       .  S
C1456      C1457   1.412       .  A
C1457      C1458   1.408       .  A
C1457      H1460   1.085       .  S
C1458      C1461   1.444       .  S
C1461      N1463   1.157       .  T
C1462      N1464   1.157       .  T
C1465      C1466   1.409       .  A
C1465      C1470   1.409       .  A
C1466      C1467   1.408   1_556  A
C1466      H1471   1.082   1_556  S
C1467      C1468   1.407       .  A
C1467      C1474   1.442       .  S
C1468      C1469   1.411   1_554  A
C1469      C1470   1.408       .  A
C1469      H1472   1.084       .  S
C1470      C1473   1.442       .  S
C1473      N1475   1.157       .  T
C1474      N1476   1.157       .  T
C1477      C1478   1.413       .  A
C1477      C1482   1.417       .  A
C1478      C1479   1.404       .  A
C1478      H1483   1.084       .  S
C1479      C1480   1.406       .  A
C1479      C1486   1.444       .  S
C1480      C1481   1.405       .  A
C1481      C1482   1.404       .  A
C1481      H1484   1.086       .  S
C1482      C1485   1.443       .  S
C1485      N1487   1.157       .  T
C1486      N1488   1.157       .  T
C1489      C1490   1.414       .  A
C1489      C1494   1.420       .  A
C1490      C1491   1.410       .  A
C1490      H1495   1.084       .  S
C1491      C1492   1.410       .  A
C1491      C1498   1.443       .  S
C1492      C1493   1.404       .  A
C1493      C1494   1.405       .  A
C1493      H1496   1.085       .  S
C1494      C1497   1.443       .  S
C1497      N1499   1.157       .  T
C1498      N1500   1.157       .  T
C1501      C1502   1.406       .  A
C1501      C1506   1.407       .  A
C1502      C1503   1.400       .  A
C1502      H1507   1.081       .  S
C1503      C1504   1.407       .  A
C1503      C1510   1.442       .  S
C1504      C1505   1.408       .  A
C1505      C1506   1.400       .  A
C1505      H1508   1.085       .  S
C1506      C1509   1.445   1_556  S
C1509      N1511   1.157       .  T
C1510      N1512   1.157       .  T
C1513      C1514   1.414       .  A
C1513      C1518   1.413       .  A
C1514      C1515   1.409       .  A
C1514      H1519   1.084       .  S
C1515      C1516   1.413       .  A
C1515      C1522   1.443       .  S
C1516      C1517   1.413       .  A
C1517      C1518   1.407       .  A
C1517      H1520   1.084       .  S
C1518      C1521   1.444       .  S
C1521      N1523   1.157       .  T
C1522      N1524   1.157       .  T
C1525      C1526   1.405       .  A
C1525      C1530   1.419       .  A
C1526      C1527   1.408       .  A
C1526      H1531   1.085       .  S
C1527      C1528   1.421       .  A
C1527      C1534   1.444       .  S
C1528      C1529   1.405       .  A
C1529      C1530   1.411       .  A
C1529      H1532   1.082       .  S
C1530      C1533   1.443       .  S
C1533      N1535   1.157       .  T
C1534      N1536   1.157       .  T
C1537      C1538   1.413       .  A
C1537      C1542   1.419       .  A
C1538      C1539   1.412       .  A
C1538      H1543   1.084       .  S
C1539      C1540   1.414       .  A
C1539      C1546   1.441       .  S
C1540      C1541   1.411       .  A
C1541      C1542   1.404       .  A
C1541      H1544   1.086       .  S
C1542      C1545   1.445       .  S
C1545      N1547   1.158       .  T
C1546      N1548   1.157       .  T
C1549      C1550   1.412       .  A
C1549      C1554   1.417       .  A
C1550      C1551   1.403       .  A
C1550      H1555   1.085       .  S
C1551      C1552   1.410       .  A
C1551      C1558   1.444       .  S
C1552      C1553   1.406       .  A
C1553      C1554   1.402       .  A
C1553      H1556   1.087       .  S
C1554      C1557   1.444       .  S
C1557      N1559   1.157       .  T
C1558      N1560   1.157       .  T
C1561      C1562   1.414       .  A
C1561      C1566   1.412       .  A
C1562      C1563   1.406       .  A
C1562      H1567   1.084       .  S
C1563      C1564   1.411       .  A
C1563      C1570   1.442       .  S
C1564      C1565   1.413       .  A
C1565      C1566   1.402       .  A
C1565      H1568   1.084       .  S
C1566      C1569   1.443       .  S
C1569      N1571   1.157       .  T
C1570      N1572   1.157       .  T
C1573      C1574   1.415       .  A
C1573      C1578   1.405       .  A
C1574      C1575   1.411       .  A
C1574      H1579   1.085       .  S
C1575      C1576   1.416       .  A
C1575      C1582   1.440       .  S
C1576      C1577   1.425       .  A
C1577      C1578   1.405       .  A
C1577      H1580   1.081       .  S
C1578      C1581   1.444       .  S
C1581      N1583   1.157       .  T
C1582      N1584   1.158       .  T
C1585      C1586   1.411       .  A
C1585      C1590   1.421       .  A
C1586      C1587   1.412       .  A
C1586      H1591   1.083       .  S
C1587      C1588   1.415       .  A
C1587      C1594   1.443       .  S
C1588      C1589   1.404       .  A
C1589      C1590   1.401       .  A
C1589      H1592   1.085       .  S
C1590      C1593   1.445       .  S
C1593      N1595   1.157       .  T
C1594      N1596   1.157       .  T
C1597      C1598   1.406       .  A
C1597      C1602   1.408       .  A
C1598      C1599   1.398       .  A
C1598      H1603   1.086       .  S
C1599      C1600   1.408       .  A
C1599      C1606   1.444       .  S
C1600      C1601   1.410       .  A
C1601      C1602   1.409       .  A
C1601      H1604   1.084       .  S
C1602      C1605   1.442       .  S
C1605      N1607   1.157       .  T
C1606      N1608   1.157       .  T
C1609      C1610   1.420       .  A
C1609      C1614   1.410       .  A
C1610      C1611   1.409       .  A
C1610      H1615   1.080       .  S
C1611      C1612   1.404       .  A
C1611      C1618   1.440       .  S
C1612      C1613   1.415       .  A
C1613      C1614   1.410       .  A
C1613      H1616   1.079       .  S
C1614      C1617   1.443       .  S
C1617      N1619   1.157       .  T
C1618      N1620   1.156       .  T
C1621      C1622   1.401       .  A
C1621      C1626   1.414       .  A
C1622      C1623   1.399       .  A
C1622      H1627   1.085       .  S
C1623      C1624   1.415       .  A
C1623      C1630   1.446       .  S
C1624      C1625   1.404       .  A
C1625      C1626   1.408       .  A
C1625      H1628   1.084       .  S
C1626      C1629   1.442       .  S
C1629      N1631   1.157       .  T
C1630      N1632   1.157       .  T
C1633      C1634   1.413       .  A
C1633      C1638   1.417       .  A
C1634      C1635   1.402       .  A
C1634      H1639   1.085       .  S
C1635      C1636   1.409       .  A
C1635      C1642   1.445       .  S
C1636      C1637   1.407       .  A
C1637      C1638   1.412       .  A
C1637      H1640   1.085       .  S
C1638      C1641   1.442       .  S
C1641      N1643   1.157       .  T
C1642      N1644   1.157       .  T
C1645      C1646   1.413       .  A
C1645      C1650   1.415       .  A
C1646      C1647   1.400       .  A
C1646      H1651   1.085       .  S
C1647      C1648   1.405       .  A
C1647      C1654   1.444       .  S
C1648      C1649   1.410       .  A
C1649      C1650   1.415       .  A
C1649      H1652   1.085       .  S
C1650      C1653   1.442       .  S
C1653      N1655   1.157       .  T
C1654      N1656   1.157       .  T
C1657      C1658   1.413       .  A
C1657      C1662   1.409       .  A
C1658      C1659   1.398       .  A
C1658      H1663   1.085       .  S
C1659      C1660   1.403       .  A
C1659      C1666   1.444       .  S
C1660      C1661   1.410       .  A
C1661      C1662   1.408       .  A
C1661      H1664   1.085       .  S
C1662      C1665   1.442       .  S
C1665      N1667   1.157       .  T
C1666      N1668   1.157       .  T
C1669      C1670   1.420       .  A
C1669      C1674   1.410       .  A
C1670      C1671   1.408       .  A
C1670      H1675   1.085       .  S
C1671      C1672   1.409       .  A
C1671      C1678   1.443       .  S
C1672      C1673   1.411       .  A
C1673      C1674   1.404       .  A
C1673      H1676   1.085       .  S
C1674      C1677   1.435       .  S
C1677      N1679   1.156       .  T
C1678      N1680   1.157       .  T
C1681      C1682   1.406       .  A
C1681      C1686   1.414       .  A
C1682      C1683   1.402       .  A
C1682      H1687   1.084       .  S
C1683      C1684   1.412       .  A
C1683      C1690   1.445       .  S
C1684      C1685   1.409       .  A
C1685      C1686   1.413       .  A
C1685      H1688   1.085       .  S
C1686      C1689   1.443       .  S
C1689      N1691   1.157       .  T
C1690      N1692   1.157       .  T
C1693      C1694   1.411       .  A
C1693      C1698   1.423       .  A
C1694      C1695   1.403       .  A
C1694      H1699   1.084       .  S
C1695      C1696   1.410       .  A
C1695      C1702   1.445       .  S
C1696      C1697   1.402       .  A
C1697      C1698   1.406       .  A
C1697      H1700   1.085       .  S
C1698      C1701   1.444       .  S
C1701      N1703   1.157       .  T
C1702      N1704   1.157       .  T
C1705      C1706   1.399       .  A
C1705      C1710   1.428       .  A
C1706      C1707   1.405       .  A
C1706      H1711   1.085       .  S
C1707      C1708   1.428       .  A
C1707      C1714   1.444       .  S
C1708      C1709   1.395       .  A
C1709      C1710   1.402       .  A
C1709      H1712   1.083       .  S
C1710      C1713   1.443       .  S
C1713      N1715   1.157       .  T
C1714      N1716   1.157       .  T
C1717      C1718   1.398       .  A
C1717      C1722   1.420       .  A
C1718      C1719   1.408       .  A
C1718      H1723   1.084       .  S
C1719      C1720   1.421       .  A
C1719      C1726   1.444       .  S
C1720      C1721   1.395       .  A
C1721      C1722   1.402       .  A
C1721      H1724   1.085       .  S
C1722      C1725   1.441       .  S
C1725      N1727   1.156       .  T
C1726      N1728   1.157       .  T
C1729      C1730   1.400       .  A
C1729      C1734   1.408       .  A
C1730      C1731   1.400       .  A
C1730      H1735   1.074       .  S
C1731      C1732   1.409       .  A
C1731      C1738   1.444       .  S
C1732      C1733   1.408       .  A
C1733      C1734   1.405       .  A
C1733      H1736   1.084       .  S
C1734      C1737   1.443       .  S
C1737      N1739   1.157       .  T
C1738      N1740   1.157       .  T
C1741      C1742   1.413       .  A
C1741      C1746   1.411       .  A
C1742      C1743   1.412       .  A
C1742      H1747   1.084       .  S
C1743      C1744   1.414       .  A
C1743      C1750   1.443       .  S
C1744      C1745   1.413       .  A
C1745      C1746   1.406       .  A
C1745      H1748   1.084       .  S
C1746      C1749   1.444       .  S
C1749      N1751   1.157       .  T
C1750      N1752   1.157       .  T
C1753      C1754   1.412       .  A
C1753      C1758   1.419       .  A
C1754      C1755   1.411   1_556  A
C1754      H1759   1.084       .  S
C1755      C1756   1.417       .  A
C1755      C1762   1.442       .  S
C1756      C1757   1.409       .  A
C1757      C1758   1.403   1_554  A
C1757      H1760   1.084       .  S
C1758      C1761   1.445       .  S
C1761      N1763   1.157       .  T
C1762      N1764   1.157       .  T
C1765      C1766   1.416       .  A
C1765      C1770   1.418   1_455  A
C1766      C1767   1.408       .  A
C1766      H1771   1.084       .  S
C1767      C1768   1.408       .  A
C1767      C1774   1.444       .  S
C1768      C1769   1.407       .  A
C1769      C1770   1.408   1_455  A
C1769      H1772   1.085       .  S
C1770      C1773   1.442       .  S
C1773      N1775   1.157       .  T
C1774      N1776   1.157       .  T
C1777      C1778   1.416       .  A
C1777      C1782   1.416   1_545  A
C1778      C1779   1.410       .  A
C1778      H1783   1.083       .  S
C1779      C1780   1.409       .  A
C1779      C1786   1.443       .  S
C1780      C1781   1.409       .  A
C1781      C1782   1.406   1_545  A
C1781      H1784   1.085   1_545  S
C1782      C1785   1.443       .  S
C1785      N1787   1.157       .  T
C1786      N1788   1.157       .  T
C1789      C1790   1.402   1_556  A
C1789      C1794   1.430       .  A
C1790      C1791   1.404       .  A
C1790      H1795   1.084       .  S
C1791      C1792   1.418   1_554  A
C1791      C1798   1.445       .  S
C1792      C1793   1.399       .  A
C1793      C1794   1.410       .  A
C1793      H1796   1.084       .  S
C1794      C1797   1.444       .  S
C1797      N1799   1.157       .  T
C1798      N1800   1.157       .  T
C1801      C1802   1.401       .  A
C1801      C1806   1.420       .  A
C1802      C1803   1.404   1_545  A
C1802      H1807   1.085       .  S
C1803      C1804   1.423       .  A
C1803      C1810   1.444       .  S
C1804      C1805   1.407       .  A
C1805      C1806   1.416   1_565  A
C1805      H1808   1.082       .  S
C1806      C1809   1.443       .  S
C1809      N1811   1.157       .  T
C1810      N1812   1.157       .  T
C1813      C1814   1.403   1_655  A
C1813      C1818   1.413       .  A
C1814      C1815   1.403       .  A
C1814      H1819   1.085       .  S
C1815      C1816   1.416       .  A
C1815      C1822   1.445       .  S
C1816      C1817   1.405       .  A
C1817      C1818   1.405   1_455  A
C1817      H1820   1.085       .  S
C1818      C1821   1.443       .  S
C1821      N1823   1.157       .  T
C1822      N1824   1.157       .  T
C1825      C1826   1.400       .  A
C1825      C1830   1.415       .  A
C1826      C1827   1.400       .  A
C1826      H1831   1.085       .  S
C1827      C1828   1.418       .  A
C1827      C1834   1.444       .  S
C1828      C1829   1.405       .  A
C1829      C1830   1.410       .  A
C1829      H1832   1.085       .  S
C1830      C1833   1.443   1_455  S
C1833      N1835   1.157       .  T
C1834      N1836   1.157       .  T
C1837      C1838   1.411       .  A
C1837      C1842   1.410       .  A
C1838      C1839   1.409       .  A
C1838      H1843   1.085       .  S
C1839      C1840   1.414       .  A
C1839      C1846   1.443       .  S
C1840      C1841   1.411       .  A
C1841      C1842   1.406       .  A
C1841      H1844   1.084       .  S
C1842      C1845   1.443       .  S
C1845      N1847   1.157       .  T
C1846      N1848   1.157       .  T
C1849      C1850   1.413       .  A
C1849      C1854   1.422       .  A
C1850      C1851   1.404   1_455  A
C1850      H1855   1.084   1_455  S
C1851      C1852   1.412       .  A
C1851      C1858   1.445       .  S
C1852      C1853   1.407   1_655  A
C1853      C1854   1.414       .  A
C1853      H1856   1.084       .  S
C1854      C1857   1.442       .  S
C1857      N1859   1.157       .  T
C1858      N1860   1.157       .  T
C1861      C1862   1.403       .  A
C1861      C1866   1.415       .  A
C1862      C1863   1.405       .  A
C1862      H1867   1.081       .  S
C1863      C1864   1.415       .  A
C1863      C1870   1.444       .  S
C1864      C1865   1.405       .  A
C1865      C1866   1.408       .  A
C1865      H1868   1.083       .  S
C1866      C1869   1.443       .  S
C1869      N1871   1.157       .  T
C1870      N1872   1.157       .  T
C1873      C1874   1.398       .  A
C1873      C1878   1.414       .  A
C1874      C1875   1.406       .  A
C1874      H1879   1.084       .  S
C1875      C1876   1.423       .  A
C1875      C1882   1.444       .  S
C1876      C1877   1.400       .  A
C1877      C1878   1.403       .  A
C1877      H1880   1.083       .  S
C1878      C1881   1.439       .  S
C1881      N1883   1.156       .  T
C1882      N1884   1.157       .  T
C1885      C1886   1.413       .  A
C1885      C1890   1.419       .  A
C1886      C1887   1.406       .  A
C1886      H1891   1.083       .  S
C1887      C1888   1.409       .  A
C1887      C1894   1.444       .  S
C1888      C1889   1.405       .  A
C1889      C1890   1.402       .  A
C1889      H1892   1.085       .  S
C1890      C1893   1.444   1_655  S
C1893      N1895   1.157       .  T
C1894      N1896   1.157       .  T
C1897      C1898   1.406       .  A
C1897      C1902   1.420       .  A
C1898      C1899   1.414   1_545  A
C1898      H1903   1.084       .  S
C1899      C1900   1.420       .  A
C1899      C1906   1.443       .  S
C1900      C1901   1.403       .  A
C1901      C1902   1.406   1_565  A
C1901      H1904   1.085       .  S
C1902      C1905   1.445       .  S
C1905      N1907   1.157       .  T
C1906      N1908   1.157       .  T
C1909      C1910   1.399       .  A
C1909      C1914   1.419       .  A
C1910      C1911   1.396       .  A
C1910      H1915   1.081       .  S
C1911      C1912   1.421       .  A
C1911      C1918   1.444       .  S
C1912      C1913   1.401       .  A
C1913      C1914   1.403       .  A
C1913      H1916   1.085       .  S
C1914      C1917   1.444       .  S
C1917      N1919   1.157       .  T
C1918      N1920   1.157       .  T
C1921      C1922   1.407       .  A
C1921      C1926   1.418       .  A
C1922      C1923   1.409       .  A
C1922      H1927   1.084       .  S
C1923      C1924   1.418       .  A
C1923      C1930   1.445       .  S
C1924      C1925   1.403       .  A
C1925      C1926   1.406       .  A
C1925      H1928   1.084       .  S
C1926      C1929   1.443       .  S
C1929      N1931   1.157       .  T
C1930      N1932   1.157       .  T
C1933      C1934   1.399       .  A
C1933      C1938   1.420   1_545  A
C1934      C1935   1.407       .  A
C1934      H1939   1.084       .  S
C1935      C1936   1.423   1_545  A
C1935      C1942   1.444       .  S
C1936      C1937   1.399       .  A
C1937      C1938   1.409       .  A
C1937      H1940   1.085       .  S
C1938      C1941   1.440       .  S
C1941      N1943   1.156       .  T
C1942      N1944   1.157       .  T
C1945      C1946   1.406       .  A
C1945      C1950   1.416       .  A
C1946      C1947   1.402       .  A
C1946      H1951   1.085       .  S
C1947      C1948   1.422       .  A
C1947      C1954   1.444       .  S
C1948      C1949   1.414       .  A
C1949      C1950   1.414       .  A
C1949      H1952   1.085       .  S
C1950      C1953   1.443       .  S
C1953      N1955   1.157       .  T
C1954      N1956   1.157   1_565  T
C1957      C1958   1.402       .  A
C1957      C1962   1.411       .  A
C1958      C1959   1.404       .  A
C1958      H1963   1.085       .  S
C1959      C1960   1.420       .  A
C1959      C1966   1.444       .  S
C1960      C1961   1.407       .  A
C1961      C1962   1.402       .  A
C1961      H1964   1.084       .  S
C1962      C1965   1.444       .  S
C1965      N1967   1.157       .  T
C1966      N1968   1.157       .  T
C1969      C1970   1.412   1_556  A
C1969      C1974   1.421   1_556  A
C1970      C1971   1.401       .  A
C1970      H1975   1.085       .  S
C1971      C1972   1.408       .  A
C1971      C1978   1.444       .  S
C1972      C1973   1.404       .  A
C1973      C1974   1.408       .  A
C1973      H1976   1.085       .  S
C1974      C1977   1.443   1_554  S
C1977      N1979   1.157       .  T
C1978      N1980   1.156       .  T
C1981      C1982   1.413       .  A
C1981      C1986   1.415       .  A
C1982      C1983   1.401       .  A
C1982      H1987   1.084       .  S
C1983      C1984   1.406       .  A
C1983      C1990   1.444       .  S
C1984      C1985   1.405       .  A
C1985      C1986   1.403       .  A
C1985      H1988   1.086       .  S
C1986      C1989   1.443       .  S
C1989      N1991   1.157       .  T
C1990      N1992   1.157       .  T
C1993      C1994   1.411       .  A
C1993      C1998   1.402       .  A
C1994      C1995   1.407       .  A
C1994      H1999   1.085       .  S
C1995      C1996   1.408       .  A
C1995      C2002   1.443       .  S
C1996      C1997   1.417       .  A
C1997      C1998   1.406       .  A
C1997      H2000   1.085       .  S
C1998      C2001   1.442       .  S
C2001      N2003   1.157       .  T
C2002      N2004   1.157       .  T
C2005      C2006   1.403       .  A
C2005      C2010   1.419   1_554  A
C2006      C2007   1.401   1_554  A
C2006      H2011   1.085       .  S
C2007      C2008   1.414       .  A
C2007      C2014   1.445       .  S
C2008      C2009   1.401       .  A
C2009      C2010   1.404       .  A
C2009      H2012   1.085       .  S
C2010      C2013   1.444   1_556  S
C2013      N2015   1.157       .  T
C2014      N2016   1.157       .  T
C2017      C2018   1.392       .  A
C2017      C2022   1.425       .  A
C2018      C2019   1.399       .  A
C2018      H2023   1.083       .  S
C2019      C2020   1.426       .  A
C2019      C2026   1.440       .  S
C2020      C2021   1.396       .  A
C2021      C2022   1.404       .  A
C2021      H2024   1.084       .  S
C2022      C2025   1.445       .  S
C2025      N2027   1.157       .  T
C2026      N2028   1.156       .  T
C2029      C2030   1.405       .  A
C2029      C2034   1.413       .  A
C2030      C2031   1.406       .  A
C2030      H2035   1.084       .  S
C2031      C2032   1.413       .  A
C2031      C2038   1.444       .  S
C2032      C2033   1.407       .  A
C2033      C2034   1.409       .  A
C2033      H2036   1.085       .  S
C2034      C2037   1.443       .  S
C2037      N2039   1.157       .  T
C2038      N2040   1.157       .  T
