geometry optimzed in LAMMPS
_audit_creation_date              2020-11-30 
_audit_creation_method            'lammps2cif' 
_symmetry_space_group_name_H-M    'P1' 
_symmetry_Int_Tables_number       1 
_symmetry_cell_setting            triclinic 
loop_ 
_symmetry_equiv_pos_as_xyz 
  x,y,z 
_cell_length_a                    63.40120805 
_cell_length_b                    63.15953834970078 
_cell_length_c                    59.32854614486502 
_cell_angle_alpha                 90.43450919243527 
_cell_angle_beta                  89.94590216029508 
_cell_angle_gamma                 90.17922159403464 
loop_ 
_atom_site_label 
_atom_site_type_symbol 
_atom_site_fract_x 
_atom_site_fract_y 
_atom_site_fract_z 
_atom_site_charge 
O1          O  0.41848684  0.74052543  0.14582451    -0.56400
C2          C  0.35835833  0.72428969  0.14280420     0.76200
O3          O  0.37478600  0.79014420  0.17458561    -0.57500
C4          C  0.43037159  0.75592626  0.15124147     0.76200
C5          C  0.38077482  0.78001798  0.10322413     0.78600
Cd6        Cd  0.38522803  0.76090222  0.14774372     1.37500
O7          O  0.37751843  0.72229963  0.14841669    -0.56400
O8          O  0.39696078  0.76998546  0.10934281    -0.55200
C9          C  0.37253238  0.77822240  0.19155137     0.78600
O10         O  0.36672090  0.78259679  0.11819742    -0.57600
O11         O  0.35214168  0.74292250  0.13900441    -0.56000
O12         O  0.42122791  0.77327959  0.15571355    -0.56000
O13         O  0.37626522  0.75881900  0.18814758    -0.55200
O14         O  0.27119601  0.82846416  0.38533600    -0.56400
C15         C  0.30479539  0.88217163  0.39553466     0.76200
O16         O  0.33705218  0.83452998  0.42207800    -0.57500
C17         C  0.27340437  0.80872999  0.38843582     0.76200
C18         C  0.32733831  0.82674009  0.34793496     0.78600
Cd19       Cd  0.30901133  0.83672868  0.39193560     1.37500
O20         O  0.28890610  0.87006384  0.39734129    -0.56400
O21         O  0.31229082  0.83956062  0.35071243    -0.55200
C22         C  0.32445730  0.82856796  0.43744300     0.78600
O23         O  0.33489508  0.81887380  0.36582811    -0.57600
O24         O  0.32228020  0.87320863  0.39176016    -0.56000
O25         O  0.29183602  0.80241563  0.39297948    -0.56000
O26         O  0.30557711  0.82553863  0.43143722    -0.55200
O27         O  0.22577603  0.55544275  0.15225022    -0.56400
C28         C  0.24292031  0.61509088  0.14583618     0.76200
O29         O  0.18854506  0.60704836  0.11377258    -0.57500
C30         C  0.20982968  0.54329146  0.15121501     0.76200
C31         C  0.18396552  0.59906094  0.18752678     0.78600
Cd32       Cd  0.20590245  0.58824935  0.14591215     1.37500
O33         O  0.24463826  0.59518985  0.14382989    -0.56400
O34         O  0.20292951  0.59305796  0.18652703    -0.55200
C35         C  0.19169213  0.59236452  0.09949784     0.78600
O36         O  0.17431217  0.60001707  0.16882305    -0.57600
O37         O  0.22436494  0.62216884  0.14757102    -0.56000
O38         O  0.19212871  0.55209779  0.14818190    -0.56000
O39         O  0.20030099  0.57586312  0.10697879    -0.55200
O40         O  0.09203440  0.68675389  0.37753344    -0.56400
C41         C  0.15687878  0.69970636  0.38284943     0.76200
O42         O  0.13362516  0.64372160  0.41713641    -0.57500
C43         C  0.08038326  0.67060265  0.38033010     0.76200
C44         C  0.13326946  0.64568958  0.34138646     0.78600
Cd45       Cd  0.12520744  0.66715392  0.38391823     1.37500
O46         O  0.13741698  0.70425886  0.38235904    -0.56400
O47         O  0.12562359  0.66411602  0.34297335    -0.55200
C48         C  0.12686303  0.65717770  0.43147227     0.78600
O49         O  0.13728928  0.63651369  0.35990939    -0.57600
O50         O  0.16143625  0.68022958  0.38377154    -0.56000
O51         O  0.08968130  0.65331421  0.38433958    -0.56000
O52         O  0.11984187  0.67425250  0.42351145    -0.55200
O53         O  0.42050828  0.74519628  0.88765586    -0.56400
C54         C  0.36104402  0.72789615  0.88773651     0.76200
O55         O  0.37215308  0.76209120  0.92949550    -0.57500
C56         C  0.43259384  0.76096732  0.89051933     0.76200
C57         C  0.37710483  0.78552174  0.84862876     0.78600
Cd58       Cd  0.38704333  0.76528238  0.89132575     1.37500
O59         O  0.37824004  0.72764643  0.89862813    -0.56400
O60         O  0.38712822  0.76831568  0.85001896    -0.55200
C61         C  0.37556262  0.78075305  0.93633285     0.78600
O62         O  0.37174924  0.79400204  0.86724679    -0.57600
O63         O  0.35615988  0.74520800  0.87848727    -0.56000
O64         O  0.42361918  0.77847138  0.89430174    -0.56000
O65         O  0.38337310  0.79323818  0.92189912    -0.55200
O66         O  0.29192913  0.87721950  0.65700856    -0.56400
C67         C  0.27673222  0.81496490  0.65338689     0.76200
O68         O  0.33416850  0.82720784  0.62101433    -0.57500
C69         C  0.30772517  0.88905719  0.65324865     0.76200
C70         C  0.33154767  0.83774326  0.69544933     0.78600
Cd71       Cd  0.31165545  0.84399389  0.65181689     1.37500
O72         O  0.27377646  0.83455782  0.65033600    -0.56400
O73         O  0.31331876  0.84542781  0.69310267    -0.55200
C74         C  0.32593434  0.83790851  0.60527384     0.78600
O75         O  0.34131254  0.83327628  0.67730462    -0.57600
O76         O  0.29566702  0.80912739  0.65554475    -0.56000
O77         O  0.32514719  0.87991272  0.64941122    -0.56000
O78         O  0.31199159  0.85103433  0.61126966    -0.55200
O79         O  0.25113741  0.59555133  0.88484924    -0.56400
C80         C  0.21590633  0.54159196  0.88666490     0.76200
O81         O  0.18460112  0.59084672  0.91666075    -0.57500
C82         C  0.24849585  0.61541423  0.88343163     0.76200
C83         C  0.19351419  0.59820856  0.84415158     0.78600
Cd84       Cd  0.21274856  0.58730323  0.88665384     1.37500
O85         O  0.23205604  0.55324602  0.88925373    -0.56400
O86         O  0.20807033  0.58466967  0.84581531    -0.55200
C87         C  0.19763538  0.59569137  0.93208163     0.78600
O88         O  0.18708942  0.60649340  0.86245658    -0.57600
O89         O  0.19862078  0.55112575  0.88367264    -0.56000
O90         O  0.22959532  0.62175119  0.88303838    -0.56000
O91         O  0.21670258  0.59698053  0.92613526    -0.55200
O92         O  0.10131359  0.68590581  0.65143907    -0.56400
C93         C  0.16439992  0.70232112  0.64982344     0.76200
O94         O  0.15409835  0.64018943  0.67156384    -0.57500
C95         C  0.09034187  0.66909148  0.65031632     0.76200
C96         C  0.13858976  0.65720367  0.60072085     0.78600
Cd97       Cd  0.13545939  0.66738223  0.64821305     1.37500
O98         O  0.14506792  0.70486094  0.65468050    -0.56400
O99         O  0.13664617  0.67572182  0.60862445    -0.55200
C100        C  0.14638664  0.64677595  0.69011731     0.78600
O101        O  0.13967032  0.64236369  0.61505001    -0.57600
O102        O  0.17014119  0.68365348  0.64494043    -0.56000
O103        O  0.10034506  0.65186475  0.64827717    -0.56000
O104        O  0.13370964  0.66211620  0.68885860    -0.55200
O105        O  0.79161087  0.54878342  0.13165508    -0.56400
C106        C  0.77821716  0.61250006  0.13507544     0.76200
O107        O  0.84061361  0.59765536  0.15734150    -0.57500
C108        C  0.80776172  0.53703421  0.13261042     0.76200
C109        C  0.82551331  0.58842786  0.08610496     0.78600
Cd110      Cd  0.81217690  0.58242242  0.13248240     1.37500
O111        O  0.77462278  0.59272182  0.13547594    -0.56400
O112        O  0.80663130  0.58950401  0.09273646    -0.55200
C113        C  0.83228838  0.59105453  0.17548468     0.78600
O114        O  0.83926142  0.58516632  0.10122368    -0.57600
O115        O  0.79742894  0.61806488  0.13431420    -0.56000
O116        O  0.82540212  0.54638902  0.13348185    -0.56000
O117        O  0.81526697  0.58075060  0.17338872    -0.55200
O118        O  0.90952953  0.68006800  0.37907318    -0.56400
C119        C  0.84794299  0.69183145  0.36950906     0.76200
O120        O  0.86046318  0.63073701  0.35093129    -0.57500
C121        C  0.92204756  0.66464616  0.37633255     0.76200
C122        C  0.86959019  0.64496723  0.42243988     0.78600
Cd123      Cd  0.87724262  0.65803802  0.37613590     1.37500
O124        O  0.86765582  0.69532891  0.36946885    -0.56400
O125        O  0.86748141  0.66368327  0.41551425    -0.55200
C126        C  0.87018947  0.63684496  0.33339946     0.78600
O127        O  0.87479293  0.63131549  0.40764525    -0.57600
O128        O  0.84215569  0.67281790  0.37221126    -0.56000
O129        O  0.91377262  0.64647550  0.37426742    -0.56000
O130        O  0.88317108  0.65185132  0.33604728    -0.55200
O131        O  0.60137451  0.73866388  0.14605934    -0.56400
C132        C  0.66529285  0.72487617  0.13696185     0.76200
O133        O  0.64142042  0.78435190  0.10563842    -0.57500
C134        C  0.58918498  0.75365354  0.14063887     0.76200
C135        C  0.64514322  0.77940821  0.17948691     0.78600
Cd136      Cd  0.63452380  0.75832645  0.13719123     1.37500
O137        O  0.64590331  0.72101328  0.13361689    -0.56400
O138        O  0.63771905  0.76081941  0.17823729    -0.55200
C139        C  0.64030262  0.77013835  0.09038574     0.78600
O140        O  0.64748944  0.78893530  0.16084606    -0.57600
O141        O  0.67025602  0.74400292  0.14077545    -0.56000
O142        O  0.59802467  0.77041855  0.13382913    -0.56000
O143        O  0.63658936  0.75157241  0.09709749    -0.55200
O144        O  0.72791835  0.87245981  0.37957744    -0.56400
C145        C  0.73989422  0.80804227  0.37363045     0.76200
O146        O  0.71265274  0.83206589  0.41852773    -0.57500
C147        C  0.71181353  0.88429891  0.38034045     0.76200
C148        C  0.68909733  0.83188584  0.33423851     0.78600
Cd149      Cd  0.70748874  0.83910550  0.37843439     1.37500
O150        O  0.74460355  0.82733884  0.37717796    -0.56400
O151        O  0.70661659  0.84116574  0.33713329    -0.55200
C152        C  0.69346941  0.83065558  0.42411542     0.78600
O153        O  0.67937034  0.82647856  0.35205360    -0.57600
O154        O  0.72045007  0.80352376  0.37262498    -0.56000
O155        O  0.69404504  0.87513067  0.37998760    -0.56000
O156        O  0.68013219  0.83255718  0.40830510    -0.55200
O157        O  0.66934184  0.74119457  0.86757165    -0.56400
C158        C  0.59128002  0.75510864  0.87621380     0.76200
O159        O  0.65271344  0.75814313  0.91439451    -0.57500
C160        C  0.66285070  0.72248619  0.87057116     0.76200
C161        C  0.64777783  0.77932275  0.83431938     0.78600
Cd162      Cd  0.63669293  0.75922678  0.87647134     1.37500
O163        O  0.60282633  0.73939846  0.88101241    -0.56400
O164        O  0.63311965  0.76581520  0.83599336    -0.55200
C165        C  0.64507490  0.77515175  0.92206600     0.78600
O166        O  0.65690718  0.78467714  0.85253549    -0.57600
O167        O  0.60083807  0.77205502  0.87124206    -0.56000
O168        O  0.64351876  0.72042550  0.87577002    -0.56000
O169        O  0.63459832  0.78603290  0.90820010    -0.55200
O170        O  0.74805387  0.83150917  0.63514587    -0.56400
C171        C  0.71123701  0.88225185  0.64220238     0.76200
O172        O  0.68656231  0.81984919  0.60451493    -0.57500
C173        C  0.74681413  0.81230100  0.62903606     0.76200
C174        C  0.69239983  0.82370934  0.67752502     0.78600
Cd175      Cd  0.70894003  0.83733280  0.63443703     1.37500
O176        O  0.72619354  0.87217617  0.63285198    -0.56400
O177        O  0.71039438  0.83197374  0.67496094    -0.55200
C178        C  0.68876484  0.83459938  0.59032977     0.78600
O179        O  0.68147089  0.82123513  0.65977362    -0.57600
O180        O  0.69515178  0.87150341  0.64773680    -0.56000
O181        O  0.72846738  0.80527313  0.62531855    -0.56000
O182        O  0.69893759  0.85064393  0.59711654    -0.55200
O183        O  0.78890046  0.54533037  0.87106092    -0.56400
C184        C  0.77110286  0.60684703  0.87461378     0.76200
O185        O  0.82931644  0.59594143  0.90334513    -0.57500
C186        C  0.80559212  0.53430422  0.87040192     0.76200
C187        C  0.82684449  0.59142108  0.82989101     0.78600
Cd188      Cd  0.80746178  0.57961204  0.87242547     1.37500
O189        O  0.76960889  0.58835631  0.86634621    -0.56400
O190        O  0.80930448  0.58202905  0.83142170    -0.55200
C191        C  0.82325137  0.58279230  0.91811008     0.78600
O192        O  0.83631457  0.59501706  0.84837791    -0.57600
O193        O  0.78896749  0.61210772  0.88224872    -0.56000
O194        O  0.82290124  0.54440651  0.86996446    -0.56000
O195        O  0.81079350  0.56842669  0.91141275    -0.55200
O196        O  0.92005624  0.68259153  0.64428320    -0.56400
C197        C  0.85900731  0.70037098  0.63174845     0.76200
O198        O  0.86967691  0.64070380  0.60559516    -0.57500
C199        C  0.93163821  0.66654951  0.64087650     0.76200
C200        C  0.87479118  0.64671256  0.67845143     0.78600
Cd201      Cd  0.88649507  0.66433869  0.63511515     1.37500
O202        O  0.87882145  0.70259372  0.62999461    -0.56400
O203        O  0.87963662  0.66594944  0.67581198    -0.55200
C204        C  0.88086526  0.64783380  0.58957661     0.78600
O205        O  0.87546513  0.63515404  0.66084124    -0.57600
O206        O  0.85233891  0.68167767  0.63449401    -0.56000
O207        O  0.92229521  0.64965635  0.63493591    -0.56000
O208        O  0.89463590  0.66145303  0.59500904    -0.55200
O209        O  0.28818024  0.05316498  0.40138230    -0.56400
C210        C  0.27499717  0.11609352  0.40149390     0.76200
O211        O  0.30609940  0.09816614  0.44189137    -0.57500
C212        C  0.30320772  0.04128358  0.40728579     0.76200
C213        C  0.32689186  0.09329076  0.35729584     0.78600
Cd214      Cd  0.30927297  0.08652626  0.40249487     1.37500
O215        O  0.27168990  0.09630784  0.40263648    -0.56400
O216        O  0.30853747  0.08623057  0.36081174    -0.55200
C217        C  0.32540452  0.09766091  0.44711929     0.78600
O218        O  0.33791279  0.09674526  0.37481302    -0.64000
O219        O  0.29412435  0.12196103  0.40071604    -0.56000
O220        O  0.32066283  0.05038465  0.41099608    -0.56000
O221        O  0.33804780  0.09270621  0.43132885    -0.55200
O222        O  0.41963950  0.18129035  0.15504151    -0.56400
C223        C  0.36240955  0.19907049  0.16450908     0.76200
O224        O  0.36698545  0.15968944  0.12313248    -0.57500
C225        C  0.43170250  0.16547470  0.15703874     0.76200
C226        C  0.37578818  0.14060467  0.20225296     0.78600
Cd227      Cd  0.38635589  0.16065185  0.15947356     1.37500
O228        O  0.38023923  0.19930194  0.15480959    -0.56400
O229        O  0.38880184  0.15573580  0.20058870    -0.55200
C230        C  0.37548062  0.14317751  0.11521530     0.78600
O231        O  0.36813910  0.13378543  0.18380205    -0.57600
O232        O  0.35630014  0.18137633  0.17198962    -0.56000
O233        O  0.42274418  0.14788799  0.16056824    -0.56000
O234        O  0.38771074  0.13356656  0.12847379    -0.55200
O235        O  0.14243618  0.22501231  0.39409697    -0.56400
C236        C  0.08809794  0.26023793  0.39521634     0.76200
O237        O  0.14641140  0.28757936  0.42980304    -0.57500
C238        C  0.16113436  0.22748775  0.40114439     0.76200
C239        C  0.14435172  0.28317225  0.35794290     0.78600
Cd240      Cd  0.13289979  0.26301347  0.39983893     1.37500
O241        O  0.09909176  0.24390979  0.39906803    -0.56400
O242        O  0.13376891  0.26623183  0.35891858    -0.55200
C243        C  0.13531487  0.27964155  0.44542279     0.78600
O244        O  0.14992026  0.29129222  0.37664293    -0.57600
O245        O  0.09797792  0.27763582  0.39356227    -0.56000
O246        O  0.16619818  0.24596748  0.40735192    -0.56000
O247        O  0.12285891  0.26488457  0.43973096    -0.55200
O248        O  0.23348269  0.37353637  0.15883911    -0.56400
C249        C  0.25146636  0.31179723  0.16057727     0.76200
O250        O  0.18681811  0.32343668  0.18594975    -0.57500
C251        C  0.21717877  0.38454621  0.16282364     0.76200
C252        C  0.19734756  0.33564568  0.11660253     0.78600
Cd253      Cd  0.21500313  0.33919183  0.16164321     1.37500
O254        O  0.25318144  0.33102669  0.16649908    -0.56400
O255        O  0.21132502  0.34895007  0.12221238    -0.55200
C256        C  0.19494670  0.32943324  0.20446382     0.78600
O257        O  0.19077541  0.32360305  0.13214271    -0.57600
O258        O  0.23319881  0.30570477  0.15498655    -0.56000
O259        O  0.20026832  0.37450411  0.16684279    -0.56000
O260        O  0.21196479  0.33982122  0.20304928    -0.55200
O261        O  0.37356642  0.20121003  0.90511825    -0.56400
C262        C  0.42854374  0.16871675  0.89786822     0.76200
O263        O  0.36999900  0.13710682  0.93311527    -0.57500
C264        C  0.35408186  0.19774121  0.90813046     0.76200
C265        C  0.37398358  0.14623782  0.86044083     0.78600
Cd266      Cd  0.38382818  0.16323566  0.90457889     1.37500
O267        O  0.41718307  0.18366736  0.90542949    -0.56400
O268        O  0.37891154  0.16533287  0.86418543    -0.55200
C269        C  0.38167325  0.14399924  0.94892442     0.78600
O270        O  0.37302413  0.13435141  0.87760599    -0.57600
O271        O  0.41919906  0.15140163  0.89354978    -0.56000
O272        O  0.34866800  0.17854297  0.90991423    -0.56000
O273        O  0.39436149  0.15864078  0.94375756    -0.55200
O274        O  0.27811218  0.10282448  0.66366425    -0.56400
C275        C  0.30988676  0.04803866  0.66077999     0.76200
O276        O  0.33831630  0.10924098  0.62874362    -0.57500
C277        C  0.28040191  0.12163029  0.65682462     0.76200
C278        C  0.33407092  0.10248319  0.70223821     0.78600
Cd279      Cd  0.31556815  0.09293465  0.65867963     1.37500
O280        O  0.29450918  0.06025634  0.65685251    -0.56400
O281        O  0.31498372  0.09745281  0.69929350    -0.55200
C282        C  0.33297584  0.09597316  0.61359861     0.78600
O283        O  0.34540113  0.10327580  0.68459923    -0.57600
O284        O  0.32762363  0.05679284  0.66423671    -0.56000
O285        O  0.29872878  0.12684869  0.65048261    -0.56000
O286        O  0.32072460  0.08128221  0.61970335    -0.55200
O287        O  0.22756181  0.36979856  0.89879477    -0.56400
C288        C  0.24052218  0.30872605  0.90359706     0.76200
O289        O  0.20867010  0.32437622  0.94320247    -0.57500
C290        C  0.21286364  0.38263625  0.90349336     0.76200
C291        C  0.18628834  0.32747662  0.86129133     0.78600
Cd292      Cd  0.20573228  0.33734748  0.90451790     1.37500
O293        O  0.24288197  0.32791979  0.90955683    -0.56400
O294        O  0.20295646  0.33824523  0.86366473    -0.55200
C295        C  0.19050792  0.32958972  0.94991244     0.78600
O296        O  0.17755724  0.32139300  0.87941963    -0.57600
O297        O  0.22212620  0.30308710  0.89771684    -0.56000
O298        O  0.19538538  0.37444501  0.90899245    -0.56000
O299        O  0.17836303  0.33740806  0.93519013    -0.55200
O300        O  0.10381445  0.24361472  0.65936062    -0.56400
C301        C  0.16695100  0.23300660  0.65949427     0.76200
O302        O  0.13698321  0.29373119  0.62762737    -0.57500
C303        C  0.09131609  0.25854252  0.65457898     0.76200
C304        C  0.14282744  0.28411673  0.70322743     0.78600
Cd305      Cd  0.13621993  0.26620383  0.65825139     1.37500
O306        O  0.14737157  0.22904380  0.65771976    -0.56400
O307        O  0.13455616  0.26623963  0.69943912    -0.55200
C308        C  0.14460708  0.28132512  0.61279574     0.78600
O309        O  0.14758291  0.29484845  0.68589798    -0.57600
O310        O  0.17215300  0.25238221  0.66089081    -0.56000
O311        O  0.09966172  0.27651046  0.65160636    -0.56000
O312        O  0.14949602  0.26306172  0.61950308    -0.55200
O313        O  0.79214894  0.36590426  0.13833300    -0.56400
C314        C  0.77588817  0.30510162  0.13809282     0.76200
O315        O  0.84066811  0.33063040  0.10679963    -0.57500
C316        C  0.80769521  0.37766663  0.13349489     0.76200
C317        C  0.83093744  0.32460654  0.18006336     0.78600
Cd318      Cd  0.81221214  0.33238925  0.13614331     1.37500
O319        O  0.77382398  0.32484113  0.13498100    -0.56400
O320        O  0.81476618  0.33587131  0.17720693    -0.55200
C321        C  0.82895935  0.32330093  0.09127018     0.78600
O322        O  0.83929319  0.31703859  0.16231426    -0.57600
O323        O  0.79458413  0.29839488  0.14033789    -0.56000
O324        O  0.82506142  0.36843296  0.12995912    -0.56000
O325        O  0.81020471  0.31900135  0.09689342    -0.55200
O326        O  0.91817497  0.24374834  0.37760649    -0.56400
C327        C  0.85735955  0.22794043  0.37579900     0.76200
O328        O  0.88088449  0.29106623  0.41014567    -0.57500
C329        C  0.92953646  0.25946740  0.38317717     0.76200
C330        C  0.87786975  0.28383573  0.33626768     0.78600
Cd331      Cd  0.88463073  0.26385036  0.37938641     1.37500
O332        O  0.87611446  0.22610668  0.38292632    -0.56400
O333        O  0.88852462  0.26714772  0.33879851    -0.55200
C334        C  0.87380807  0.27801778  0.42445858     0.78600
O335        O  0.87053043  0.29217215  0.35417161    -0.57600
O336        O  0.85168675  0.24619370  0.36953769    -0.56000
O337        O  0.92001464  0.27674189  0.38662285    -0.56000
O338        O  0.87033824  0.25948455  0.41726660    -0.55200
O339        O  0.60184698  0.17696308  0.13646388    -0.56400
C340        C  0.66222097  0.19326325  0.13835493     0.76200
O341        O  0.64308646  0.12612820  0.16857141    -0.57500
C342        C  0.59043035  0.16477373  0.14821243     0.76200
C343        C  0.63596066  0.13774792  0.09753794     0.78600
Cd344      Cd  0.63471052  0.15682527  0.14250277     1.37500
O345        O  0.64399123  0.19505668  0.14688242    -0.56400
O346        O  0.61988332  0.14665445  0.10579269    -0.55200
C347        C  0.64594099  0.13801307  0.18569842     0.78600
O348        O  0.65136834  0.13548876  0.11094274    -0.57600
O349        O  0.66731603  0.17490235  0.13174343    -0.56000
O350        O  0.59961845  0.14931672  0.15740704    -0.56000
O351        O  0.64441163  0.15763766  0.18219079    -0.55200
O352        O  0.74596223  0.09772485  0.38543567    -0.56400
C353        C  0.71330358  0.04320317  0.38913532     0.76200
O354        O  0.68015893  0.09292825  0.41721033    -0.57500
C355        C  0.74294682  0.11752203  0.38422126     0.76200
C356        C  0.68689219  0.09530522  0.34375839     0.78600
Cd357      Cd  0.70784705  0.08847221  0.38705135     1.37500
O358        O  0.72731169  0.05508215  0.38069033    -0.56400
O359        O  0.70303642  0.08390239  0.34620494    -0.55200
C360        C  0.69336111  0.09648115  0.43289523     0.78600
O361        O  0.67944030  0.10334912  0.36174705    -0.57600
O362        O  0.69714797  0.05233611  0.39701976    -0.56000
O363        O  0.72390815  0.12350580  0.38427631    -0.56000
O364        O  0.71253272  0.09723571  0.42703629    -0.55200
O365        O  0.79826178  0.36364003  0.88663682    -0.56400
C366        C  0.78184272  0.30315367  0.88375525     0.76200
O367        O  0.84784189  0.32118336  0.85468882    -0.57500
C368        C  0.81159300  0.37522004  0.87657247     0.76200
C369        C  0.83825339  0.32720214  0.92471485     0.78600
Cd370      Cd  0.81818664  0.33051624  0.88095121     1.37500
O371        O  0.78015408  0.32227963  0.87781387    -0.56400
O372        O  0.82849177  0.34345407  0.91823849    -0.55200
C373        C  0.83604427  0.31971072  0.83746318     0.78600
O374        O  0.84038768  0.31254239  0.91018586    -0.57600
O375        O  0.80011459  0.29709162  0.88919482    -0.56000
O376        O  0.82773899  0.36602582  0.86865856    -0.56000
O377        O  0.81661496  0.32275939  0.84080650    -0.55200
O378        O  0.87940193  0.21984846  0.63455648    -0.56400
C379        C  0.93317995  0.25301283  0.64396719     0.76200
O380        O  0.87289049  0.28096493  0.60665215    -0.57500
C381        C  0.85977177  0.22306184  0.63258491     0.76200
C382        C  0.87893914  0.27631335  0.68010669     0.78600
Cd383      Cd  0.88882285  0.25802231  0.63639890     1.37500
O384        O  0.92160066  0.23709664  0.63954473    -0.56400
O385        O  0.88274129  0.25692336  0.67679692    -0.55200
C386        C  0.88569870  0.27540220  0.59129901     0.78600
O387        O  0.87895997  0.28790095  0.66269662    -0.57600
O388        O  0.92416288  0.27088900  0.64442864    -0.56000
O389        O  0.85399099  0.24219186  0.63211006    -0.56000
O390        O  0.90036357  0.26316412  0.59727628    -0.55200
O391        O  0.64434945  0.20012843  0.88264169    -0.56400
C392        C  0.58710782  0.16807148  0.88769958     0.76200
O393        O  0.64456325  0.13310465  0.86024194    -0.57500
C394        C  0.66371027  0.19567994  0.87996378     0.76200
C395        C  0.64016678  0.14707174  0.93033473     0.78600
Cd396      Cd  0.63235292  0.16272302  0.88512814     1.37500
O397        O  0.59904235  0.18397892  0.88477402    -0.56400
O398        O  0.64166935  0.16642523  0.92525260    -0.55200
C399        C  0.63825746  0.14153011  0.84210833     0.78600
O400        O  0.63595982  0.13441464  0.91426351    -0.57600
O401        O  0.59622101  0.15040024  0.88935504    -0.56000
O402        O  0.66830059  0.17617071  0.87972551    -0.56000
O403        O  0.62901534  0.15913634  0.84421924    -0.55200
O404        O  0.72722870  0.05321182  0.64958864    -0.56400
C405        C  0.74434469  0.11332232  0.64174837     0.76200
O406        O  0.68875327  0.10646056  0.61402306    -0.57500
C407        C  0.71092321  0.04157445  0.65105626     0.76200
C408        C  0.68850672  0.09660624  0.68831147     0.78600
Cd409      Cd  0.70726159  0.08652465  0.64490372     1.37500
O410        O  0.74522962  0.09397765  0.63595394    -0.56400
O411        O  0.70727428  0.09028596  0.68603046    -0.55200
C412        C  0.68813336  0.09106705  0.60021543     0.78600
O413        O  0.67799929  0.09857089  0.67023841    -0.57600
O414        O  0.72663443  0.11977600  0.64871365    -0.56000
O415        O  0.69330841  0.05091658  0.64999714    -0.56000
O416        O  0.69499191  0.07370825  0.60758727    -0.55200
C417        C  0.68387075  0.10676174  0.75139290    -0.26800
C418        C  0.66207885  0.10975643  0.75406256     0.06800
C419        C  0.64899368  0.10827926  0.73494766     0.26500
C420        C  0.65765649  0.10409061  0.71363559    -0.11300
C421        C  0.67948842  0.10121822  0.71094323    -0.25200
C422        C  0.69253742  0.10252684  0.73015932     0.37300
C423        C  0.65356055  0.11599937  0.77651109     0.06900
F424        F  0.62780534  0.11068013  0.73689922    -0.19000
H425        H  0.64722888  0.10298929  0.69922186     0.16700
F426        F  0.71376678  0.10024059  0.72846817    -0.22700
H427        H  0.69433410  0.10828038  0.76574102     0.18500
C428        C  0.65931181  0.10509594  0.79618147     0.26500
C429        C  0.65363745  0.11300620  0.81746657    -0.11200
C430        C  0.64204073  0.13185491  0.81955614    -0.25300
C431        C  0.63521302  0.14201143  0.79977106     0.37400
C432        C  0.64102395  0.13418067  0.77856218    -0.26900
F433        F  0.67066608  0.08694518  0.79482428    -0.19000
H434        H  0.65882271  0.10466314  0.83233559     0.16700
F435        F  0.62351829  0.15995885  0.80080175    -0.22700
H436        H  0.63645483  0.14291027  0.76371339     0.18500
C437        C  0.80816730  0.19345441  0.62586555    -0.26800
C438        C  0.81325870  0.17342180  0.63437622     0.06800
C439        C  0.83428524  0.16926166  0.64048298     0.26500
C440        C  0.84962688  0.18522573  0.63900763    -0.11300
C441        C  0.84420609  0.20558474  0.63158857    -0.25200
C442        C  0.82338578  0.20939920  0.62454549     0.37300
C443        C  0.79627353  0.15741414  0.63732733     0.06900
F444        F  0.83981464  0.15014223  0.64888816    -0.19000
H445        H  0.86551363  0.18189459  0.64447409     0.16700
F446        F  0.81759924  0.22860086  0.61652644    -0.22700
H447        H  0.79227938  0.19684667  0.62046475     0.18500
C448        C  0.77723598  0.16308468  0.64792106     0.26500
C449        C  0.76069475  0.14854852  0.64942055    -0.11200
C450        C  0.76268840  0.12794860  0.64055230    -0.25300
C451        C  0.78194930  0.12203343  0.63047626     0.37400
C452        C  0.79856475  0.13668445  0.62889260    -0.26900
F453        F  0.77462207  0.18271047  0.65699077    -0.19000
H454        H  0.74621091  0.15353060  0.65750386     0.16700
F455        F  0.78462009  0.10233009  0.62167965    -0.22700
H456        H  0.81298963  0.13201109  0.62054930     0.18500
C457        C  0.74786227  0.25457876  0.89323896    -0.26800
C458        C  0.73029356  0.25881227  0.87954864     0.06800
C459        C  0.72935001  0.27836467  0.86832374     0.26500
C460        C  0.74581819  0.29304824  0.87047234    -0.11300
C461        C  0.76366963  0.28843074  0.88352797    -0.25200
C462        C  0.76445420  0.26909734  0.89509557     0.37300
C463        C  0.71304280  0.24284772  0.87748252     0.06900
F464        F  0.71293156  0.28301033  0.85458060    -0.19000
H465        H  0.74491386  0.30774280  0.86128260     0.16700
F466        F  0.78119968  0.26420531  0.90829962    -0.22700
H467        H  0.74874189  0.23999576  0.90261434     0.18500
C468        C  0.71764669  0.22119951  0.87456890     0.26500
C469        C  0.70148108  0.20610195  0.87489012    -0.11200
C470        C  0.68032284  0.21218511  0.87773876    -0.25300
C471        C  0.67558897  0.23392526  0.87923288     0.37400
C472        C  0.69181935  0.24902483  0.87937976    -0.26900
F473        F  0.73779601  0.21457671  0.87139267    -0.19000
H474        H  0.70561535  0.18954419  0.87319114     0.16700
F475        F  0.65535433  0.24065889  0.88107190    -0.22700
H476        H  0.68777776  0.26550705  0.88168267     0.18500
C477        C  0.87202425  0.30463633  0.78842463    -0.26800
C478        C  0.85796840  0.30563078  0.77013761     0.06800
C479        C  0.83689536  0.31127239  0.77419800     0.26500
C480        C  0.83007069  0.31585914  0.79608338    -0.11300
C481        C  0.84405485  0.31491262  0.81446403    -0.25200
C482        C  0.86520952  0.30933208  0.81040051     0.37300
C483        C  0.86484559  0.29917845  0.74717626     0.06900
F484        F  0.82265794  0.31150168  0.75712335    -0.19000
H485        H  0.81369237  0.31999306  0.79862968     0.16700
F486        F  0.87922181  0.30805023  0.82760941    -0.22700
H487        H  0.88826821  0.30010353  0.78566186     0.18500
C488        C  0.86181199  0.31236014  0.72842131     0.26500
C489        C  0.86678311  0.30511002  0.70663955    -0.11200
C490        C  0.87474673  0.28458465  0.70320021    -0.25300
C491        C  0.87845285  0.27176634  0.72216990     0.37400
C492        C  0.87357523  0.27905520  0.74383180    -0.26900
F493        F  0.85407437  0.33222582  0.73119515    -0.19000
H494        H  0.86404809  0.31542444  0.69242601     0.16700
F495        F  0.88669656  0.25205731  0.71988750    -0.22700
H496        H  0.87608568  0.26867970  0.75803831     0.18500
C497        C  0.67732781  0.11467912  0.54261018    -0.26800
C498        C  0.67631525  0.09641777  0.52892485     0.06800
C499        C  0.67613614  0.07649102  0.53937091     0.26500
C500        C  0.67862736  0.07493975  0.56279396    -0.11300
C501        C  0.68114690  0.09318442  0.57634540    -0.25200
C502        C  0.67952014  0.11314611  0.56607598     0.37300
C503        C  0.67876786  0.09822905  0.50399490     0.06900
F504        F  0.67532293  0.05844628  0.52682288    -0.19000
H505        H  0.67963066  0.05938188  0.57017859     0.16700
F506        F  0.68150549  0.13121524  0.57842190    -0.22700
H507        H  0.67738017  0.13017316  0.53497659     0.18500
C508        C  0.66492803  0.08818661  0.48868335     0.26500
C509        C  0.66901226  0.08870290  0.46537349    -0.11200
C510        C  0.68721180  0.09876954  0.45700096    -0.25300
C511        C  0.70065584  0.10928004  0.47233292     0.37400
C512        C  0.69632713  0.10915285  0.49544996    -0.26900
F513        F  0.64767202  0.07762608  0.49624048    -0.19000
H514        H  0.65848424  0.08041650  0.45399581     0.16700
F515        F  0.71832181  0.11934156  0.46506902    -0.22700
H516        H  0.70726874  0.11689458  0.50684184     0.18500
C517        C  0.62078918  0.13256355  0.03576927    -0.26800
C518        C  0.64032387  0.12850239  0.02552546     0.06800
C519        C  0.65799117  0.12497026  0.03935308     0.26500
C520        C  0.65623893  0.12649590  0.06293527    -0.11300
C521        C  0.63691123  0.13189128  0.07314406    -0.25200
C522        C  0.61905195  0.13437215  0.05922247     0.37300
C523        C  0.64239877  0.13063834  0.00062713     0.06900
F524        F  0.67708025  0.12070124  0.03002031    -0.19000
H525        H  0.67022306  0.12453402  0.07309337     0.16700
F526        F  0.60003493  0.13970129  0.06809072    -0.22700
H527        H  0.60703538  0.13558018  0.02550985     0.18500
C528        C  0.62897006  0.11957822  0.98569937     0.26500
C529        C  0.62924246  0.12403295  0.96254351    -0.11200
C530        C  0.64240444  0.14003164  0.95399916    -0.25300
C531        C  0.65616753  0.15068797  0.96883915     0.37400
C532        C  0.65632123  0.14582383  0.99182534    -0.26900
F533        F  0.61518345  0.10491185  0.99360186    -0.19000
H534        H  0.61835510  0.11577453  0.95148399     0.16700
F535        F  0.66915586  0.16618100  0.96119436    -0.22700
H536        H  0.66658743  0.15475352  0.00299187     0.18500
C537        C  0.65841693  0.13696110  0.24842317    -0.26800
C538        C  0.65847617  0.11526493  0.25318905     0.06800
C539        C  0.65413497  0.10080846  0.23551641     0.26500
C540        C  0.65022952  0.10811581  0.21354628    -0.11300
C541        C  0.65048593  0.12991902  0.20878260    -0.25200
C542        C  0.65451505  0.14425087  0.22666059     0.37300
C543        C  0.66398996  0.10827401  0.27644927     0.06900
F544        F  0.65326841  0.07969909  0.23956370    -0.19000
H545        H  0.64685357  0.09668510  0.20026159     0.16700
F546        F  0.65488633  0.16546486  0.22321466    -0.22700
H547        H  0.66186275  0.14844172  0.26163625     0.18500
C548        C  0.68040774  0.09378483  0.28004637     0.26500
C549        C  0.68711247  0.08917792  0.30196402    -0.11200
C550        C  0.67794473  0.09916507  0.32088788    -0.25300
C551        C  0.66137586  0.11355742  0.31731297     0.37400
C552        C  0.65443605  0.11791004  0.29535221    -0.26900
F553        F  0.69097807  0.08513873  0.26234585    -0.19000
H554        H  0.70006997  0.07826484  0.30404078     0.16700
F555        F  0.65243136  0.12410452  0.33487478    -0.22700
H556        H  0.64194088  0.12931056  0.29304832     0.18500
C557        C  0.89669731  0.28263570  0.52892207    -0.26800
C558        C  0.87663024  0.28778290  0.52071462     0.06800
C559        C  0.85998460  0.29068141  0.53607351     0.26500
C560        C  0.86332476  0.28793983  0.55924243    -0.11300
C561        C  0.88318780  0.28173693  0.56739031    -0.25200
C562        C  0.89997262  0.27947193  0.55196736     0.37300
C563        C  0.87297667  0.28802381  0.49603847     0.06900
F564        F  0.84041302  0.29567768  0.52859183    -0.19000
H565        H  0.85012736  0.28966141  0.57067107     0.16700
F566        F  0.91944750  0.27362296  0.55903327    -0.22700
H567        H  0.90967136  0.28015012  0.51730955     0.18500
C568        C  0.88422054  0.30191592  0.48201883     0.26500
C569        C  0.88313566  0.29968881  0.45851620    -0.11200
C570        C  0.87112231  0.28332533  0.44867322    -0.25300
C571        C  0.85894515  0.27019610  0.46276108     0.37400
C572        C  0.85982713  0.27263838  0.48619894    -0.26900
F573        F  0.89680368  0.31715575  0.49110218    -0.19000
H574        H  0.89268777  0.30994080  0.44810163     0.16700
F575        F  0.84684465  0.25440818  0.45395553    -0.22700
H576        H  0.85109642  0.26176222  0.49672766     0.18500
C577        C  0.82864659  0.17769086  0.39202627    -0.26800
C578        C  0.81138404  0.17804729  0.37721141     0.06800
C579        C  0.81015954  0.19415609  0.36102964     0.26500
C580        C  0.82548957  0.21004289  0.36030143    -0.11300
C581        C  0.84248200  0.20997550  0.37542895    -0.25200
C582        C  0.84416557  0.19346043  0.39109722     0.37300
C583        C  0.79413934  0.16231092  0.37936873     0.06900
F584        F  0.79410094  0.19453789  0.34591989    -0.19000
H585        H  0.82399263  0.22250999  0.34799864     0.16700
F586        F  0.86015749  0.19316141  0.40629266    -0.22700
H587        H  0.82974903  0.16559946  0.40476307     0.18500
C588        C  0.79826718  0.14046068  0.37976891     0.26500
C589        C  0.78161161  0.12591045  0.38145947    -0.11200
C590        C  0.76059386  0.13293296  0.38279954    -0.25300
C591        C  0.75660787  0.15486543  0.38265784     0.37400
C592        C  0.77321995  0.16930901  0.38103496    -0.26900
F593        F  0.81832441  0.13318563  0.37789665    -0.19000
H594        H  0.78514748  0.10918151  0.38150374     0.16700
F595        F  0.73665660  0.16248930  0.38408724    -0.22700
H596        H  0.76972906  0.18607328  0.38115448     0.18500
C597        C  0.85722351  0.33285447  0.03567384    -0.26800
C598        C  0.84573091  0.31973542  0.02083611     0.06800
C599        C  0.83011956  0.30630438  0.02980799     0.26500
C600        C  0.82536141  0.30692816  0.05287535    -0.11300
C601        C  0.83623204  0.32069851  0.06757407    -0.25200
C602        C  0.85259009  0.33332937  0.05880086     0.37300
C603        C  0.84827265  0.32180674  0.99595214     0.06900
F604        F  0.81848154  0.29354942  0.01608754    -0.19000
H605        H  0.81270800  0.29706250  0.05914434     0.16700
F606        F  0.86321177  0.34716651  0.07225927    -0.22700
H607        H  0.86933028  0.34323630  0.02923876     0.18500
C608        C  0.84659356  0.34178891  0.98578963     0.26500
C609        C  0.84506609  0.34346169  0.96237810    -0.11200
C610        C  0.84520450  0.32532516  0.94850600    -0.25300
C611        C  0.84875402  0.30548043  0.95846244     0.37400
C612        C  0.85015059  0.30377092  0.98200643    -0.26900
F613        F  0.84462610  0.35962355  0.99851766    -0.19000
H614        H  0.84254420  0.35894440  0.95519846     0.16700
F615        F  0.84933524  0.28757121  0.94568745    -0.22700
H616        H  0.85181892  0.28829970  0.98938687     0.18500
C617        C  0.72049513  0.28193538  0.13290213    -0.26800
C618        C  0.72423270  0.26060682  0.13815670     0.06800
C619        C  0.74470401  0.25443981  0.14434190     0.26500
C620        C  0.76116317  0.26912378  0.14464294    -0.11300
C621        C  0.75767935  0.29033859  0.13882985    -0.25200
C622        C  0.73706499  0.29672868  0.13321403     0.37300
C623        C  0.70716682  0.24450904  0.13652182     0.06900
F624        F  0.74883310  0.23413272  0.15020334    -0.19000
H625        H  0.77673675  0.26376998  0.14927275     0.16700
F626        F  0.73297312  0.31705722  0.12743283    -0.22700
H627        H  0.70492709  0.28699391  0.12798557     0.18500
C628        C  0.68773442  0.24715777  0.14764875     0.26500
C629        C  0.67281391  0.23069456  0.14766745    -0.11200
C630        C  0.67705589  0.21138266  0.13657789    -0.25300
C631        C  0.69609987  0.20924326  0.12456441     0.37400
C632        C  0.71087601  0.22565192  0.12451241    -0.26900
F633        F  0.68357476  0.26520303  0.15938205    -0.19000
H634        H  0.65829171  0.23281257  0.15690854     0.16700
F635        F  0.70070234  0.19116751  0.11308041    -0.22700
H636        H  0.72546880  0.22347319  0.11537397     0.18500
C637        C  0.83377846  0.31803742  0.24358882    -0.26800
C638        C  0.85498876  0.31247186  0.24685450     0.06800
C639        C  0.86836607  0.31127102  0.22786912     0.26500
C640        C  0.86046774  0.31497609  0.20618652    -0.11300
C641        C  0.83926426  0.32052593  0.20300187    -0.25200
C642        C  0.82602224  0.32225144  0.22202385     0.37300
C643        C  0.86255776  0.30659952  0.26978958     0.06900
F644        F  0.88917390  0.30686000  0.23028620    -0.19000
H645        H  0.87105409  0.31382156  0.19186902     0.16700
F646        F  0.80535219  0.32736643  0.21977079    -0.22700
H647        H  0.82296842  0.31863575  0.25773873     0.18500
C648        C  0.85690398  0.31841897  0.28913608     0.26500
C649        C  0.86231781  0.31128918  0.31071122    -0.11200
C650        C  0.87376916  0.29246483  0.31344329    -0.25300
C651        C  0.88036260  0.28130025  0.29401369     0.37400
C652        C  0.87457247  0.28817088  0.27257469    -0.26900
F653        F  0.84617239  0.33687766  0.28721678    -0.19000
H654        H  0.85730808  0.32038514  0.32530284     0.16700
F655        F  0.89189660  0.26330352  0.29561569    -0.22700
H656        H  0.87896550  0.27858504  0.25811649     0.18500
C657        C  0.03367525  0.26880253  0.64218337    -0.26800
C658        C  0.02375795  0.25154200  0.65256270     0.06800
C659        C  0.03626111  0.23577498  0.66243958     0.26500
C660        C  0.05831735  0.23776294  0.66256384    -0.11300
C661        C  0.06817620  0.25550071  0.65287615    -0.25200
C662        C  0.05558661  0.27081815  0.64229270     0.37300
C663        C  0.00038932  0.25053494  0.65294184     0.06900
F664        F  0.02715115  0.21891841  0.67269089    -0.19000
H665        H  0.06762598  0.22575675  0.67076378     0.16700
F666        F  0.06439801  0.28777938  0.63193476    -0.22700
H667        H  0.02436475  0.28084192  0.63398098     0.18500
C668        C  0.98870740  0.26810762  0.66045016     0.26500
C669        C  0.96683756  0.26842560  0.65803997    -0.11200
C670        C  0.95609214  0.25121251  0.64822399    -0.25300
C671        C  0.96761545  0.23308461  0.64187311     0.37400
C672        C  0.98962777  0.23281810  0.64418416    -0.26900
F673        F  0.99851035  0.28516837  0.66981440    -0.19000
H674        H  0.95833454  0.28237795  0.66352598     0.16700
F675        F  0.95781445  0.21605717  0.63245482    -0.22700
H676        H  0.99832579  0.21917428  0.63827010     0.18500
C677        C  0.15271187  0.28342165  0.76648860    -0.26800
C678        C  0.15650886  0.30485269  0.77143980     0.06800
C679        C  0.15514494  0.31965403  0.75380796     0.26500
C680        C  0.15057956  0.31297006  0.73169452    -0.11300
C681        C  0.14702712  0.29146304  0.72673539    -0.25200
C682        C  0.14794606  0.27676547  0.74451751     0.37300
C683        C  0.16321485  0.31134602  0.79461156     0.06900
F684        F  0.15806966  0.34061443  0.75799878    -0.19000
H685        H  0.14977819  0.32464828  0.71843234     0.16700
F686        F  0.14503205  0.25575641  0.74060049    -0.22700
H687        H  0.15405089  0.27163399  0.77959198     0.18500
C688        C  0.15241077  0.30434435  0.81398809     0.26500
C689        C  0.15972529  0.30979695  0.83562943    -0.11200
C690        C  0.17799043  0.32223197  0.83841581    -0.25300
C691        C  0.18872129  0.32920677  0.81896106     0.37400
C692        C  0.18136638  0.32383543  0.79745151    -0.26900
F693        F  0.13466700  0.29240091  0.81201158    -0.19000
H694        H  0.15116108  0.30414914  0.85021639     0.16700
F695        F  0.20661811  0.34097164  0.82058176    -0.22700
H696        H  0.19025518  0.32905485  0.78289700     0.18500
C697        C  0.19282707  0.17883900  0.65642854    -0.26800
C698        C  0.21411585  0.18407862  0.65979268     0.06800
C699        C  0.21976657  0.20538292  0.66330556     0.26500
C700        C  0.20434421  0.22114526  0.66337138    -0.11300
C701        C  0.18300536  0.21600072  0.65978992    -0.25200
C702        C  0.17739162  0.19462785  0.65624738     0.37300
C703        C  0.23051366  0.16747403  0.65860828     0.06900
F704        F  0.24021548  0.21091961  0.66684979    -0.19000
H705        H  0.20915111  0.23741540  0.66614495     0.16700
F706        F  0.15708884  0.18896953  0.65210205    -0.22700
H707        H  0.18823647  0.16255955  0.65336709     0.18500
C708        C  0.22965469  0.14955661  0.67251626     0.26500
C709        C  0.24568004  0.13437059  0.67148322    -0.11200
C710        C  0.26280188  0.13689150  0.65666467    -0.25300
C711        C  0.26334369  0.15458031  0.64241302     0.37400
C712        C  0.24732483  0.16966992  0.64340612    -0.26900
F713        F  0.21375357  0.14712494  0.68762619    -0.19000
H714        H  0.24500038  0.12095609  0.68269355     0.16700
F715        F  0.27923036  0.15720679  0.62732738    -0.22700
H716        H  0.24802621  0.18314700  0.63225193     0.18500
C717        C  0.48540939  0.18668281  0.90477991    -0.26800
C718        C  0.49587855  0.17289566  0.88988207     0.06800
C719        C  0.48395097  0.15871399  0.87664720     0.26500
C720        C  0.46202044  0.15777895  0.87899685    -0.11300
C721        C  0.45155848  0.17107369  0.89443587    -0.25200
C722        C  0.46342415  0.18584263  0.90704423     0.37300
C723        C  0.51924185  0.17214361  0.88947629     0.06900
F724        F  0.49355989  0.14565752  0.86155584    -0.19000
H725        H  0.45321627  0.14649849  0.86886792     0.16700
F726        F  0.45394107  0.19869672  0.92240292    -0.22700
H727        H  0.49433736  0.19754345  0.91526048     0.18500
C728        C  0.53145668  0.19022029  0.88485590     0.26500
C729        C  0.55354922  0.18896142  0.88450387    -0.11200
C730        C  0.56377705  0.16969357  0.88891878    -0.25300
C731        C  0.55141366  0.15176517  0.89407489     0.37400
C732        C  0.52943948  0.15303097  0.89421175    -0.26900
F733        F  0.52201650  0.20891966  0.88011952    -0.19000
H734        H  0.56261889  0.20297475  0.88053422     0.16700
F735        F  0.56047219  0.13293703  0.89911059    -0.22700
H736        H  0.52030738  0.13903946  0.89823739     0.18500
C737        C  0.29351716  0.28328102  0.91513531    -0.26800
C738        C  0.29083684  0.26334256  0.90490799     0.06800
C739        C  0.27182517  0.25871661  0.89370382     0.26500
C740        C  0.25564654  0.27364104  0.89317580    -0.11300
C741        C  0.25815979  0.29350301  0.90367523    -0.25200
C742        C  0.27733252  0.29826718  0.91456984     0.37300
C743        C  0.30749153  0.24708085  0.90674471     0.06900
F744        F  0.26895231  0.23980368  0.88309426    -0.19000
H745        H  0.24115203  0.26962432  0.88456513     0.16700
F746        F  0.28026575  0.31711844  0.92526631    -0.22700
H747        H  0.30791281  0.28702752  0.92403177     0.18500
C748        C  0.32840249  0.25132936  0.90025308     0.26500
C749        C  0.34368521  0.23539885  0.90133128    -0.11200
C750        C  0.33833938  0.21501946  0.90890870    -0.25300
C751        C  0.31754167  0.21109798  0.91616184     0.37400
C752        C  0.30233019  0.22697917  0.91502784    -0.26900
F753        F  0.33386657  0.27060722  0.89208438    -0.19000
H754        H  0.35952124  0.23884153  0.89567601     0.16700
F755        F  0.31180641  0.19191892  0.92436354    -0.22700
H756        H  0.28644982  0.22357079  0.92060424     0.18500
C757        C  0.36657310  0.14549907  0.79687951    -0.26800
C758        C  0.36132644  0.12427187  0.79269966     0.06800
C759        C  0.36082807  0.11003985  0.81084787     0.26500
C760        C  0.36501720  0.11715172  0.83284565    -0.11300
C761        C  0.36977866  0.13855773  0.83713120    -0.25200
C762        C  0.37068783  0.15264583  0.81878376     0.37300
C763        C  0.35518302  0.11753225  0.76959673     0.06900
F764        F  0.35640720  0.08924566  0.80725367    -0.19000
H765        H  0.36445467  0.10590549  0.84654247     0.16700
F766        F  0.37524876  0.17347227  0.82192704    -0.22700
H767        H  0.36692114  0.15673459  0.78317094     0.18500
C768        C  0.33539499  0.10816514  0.76575787     0.26500
C769        C  0.32899307  0.10305396  0.74388005    -0.11200
C770        C  0.34208948  0.10719887  0.72525099    -0.25300
C771        C  0.36203962  0.11639999  0.72907718     0.37400
C772        C  0.36842076  0.12163505  0.75108139    -0.26900
F773        F  0.32182021  0.10480679  0.78308708    -0.19000
H774        H  0.31351703  0.09608665  0.74152616     0.16700
F775        F  0.37513580  0.12082603  0.71162005    -0.22700
H776        H  0.38367666  0.12902636  0.75369301     0.18500
C777        C  0.17581774  0.31442594  0.06088927    -0.26800
C778        C  0.18132405  0.33095346  0.04623695     0.06800
C779        C  0.19010123  0.34960210  0.05527592     0.26500
C780        C  0.19443938  0.35118695  0.07829568    -0.11300
C781        C  0.18985764  0.33436032  0.09292158    -0.25200
C782        C  0.17979816  0.31617912  0.08412481     0.37300
C783        C  0.18019674  0.32810409  0.02141031     0.06900
F784        F  0.19575143  0.36582048  0.04162146    -0.19000
H785        H  0.20198617  0.36542356  0.08456822     0.16700
F786        F  0.17478575  0.29970255  0.09768724    -0.22700
H787        H  0.16897604  0.29999166  0.05423618     0.18500
C788        C  0.19240652  0.31241476  0.01076280     0.26500
C789        C  0.19471458  0.31226195  0.98730031    -0.11200
C790        C  0.18465301  0.32753330  0.97398503    -0.25300
C791        C  0.17141100  0.34245091  0.98453619     0.37400
C792        C  0.16933524  0.34277700  0.00806987    -0.26900
F793        F  0.20343059  0.29826172  0.02316268    -0.19000
H794        H  0.20508417  0.30070563  0.97959388     0.16700
F795        F  0.16190490  0.35779687  0.97233549    -0.22700
H796        H  0.15998857  0.35508124  0.01598774     0.18500
C797        C  0.98604263  0.23961015  0.38120112    -0.26800
C798        C  0.99705631  0.25735364  0.38959275     0.06800
C799        C  0.98557130  0.27530379  0.39647312     0.26500
C800        C  0.96370455  0.27568659  0.39434330    -0.11300
C801        C  0.95268211  0.25812717  0.38565092    -0.25200
C802        C  0.96402655  0.23988498  0.37938166     0.37300
C803        C  0.02045813  0.25749290  0.39044874     0.06900
F804        F  0.99542594  0.29248423  0.40552052    -0.19000
H805        H  0.95539603  0.28981876  0.39958879     0.16700
F806        F  0.95398747  0.22249093  0.37108673    -0.22700
H807        H  0.99449084  0.22571273  0.37555270     0.18500
C808        C  0.03185336  0.24019939  0.39893053     0.26500
C809        C  0.05388763  0.24101181  0.40003095    -0.11200
C810        C  0.06490882  0.25914318  0.39299277    -0.25300
C811        C  0.05351386  0.27628302  0.38422672     0.37400
C812        C  0.03158639  0.27531170  0.38277705    -0.26900
F813        F  0.02173206  0.22280634  0.40685585    -0.19000
H814        H  0.06227592  0.22765381  0.40687081     0.16700
F815        F  0.06349364  0.29397802  0.37685906    -0.22700
H816        H  0.02327933  0.28857149  0.37556877     0.18500
C817        C  0.15947550  0.27839352  0.55087926    -0.26800
C818        C  0.14504968  0.29249199  0.54121911     0.06800
C819        C  0.13208238  0.30464770  0.55559379     0.26500
C820        C  0.13300822  0.30202436  0.57905892    -0.11300
C821        C  0.14660649  0.28701206  0.58860167    -0.25200
C822        C  0.16023314  0.27557920  0.57423706     0.37300
C823        C  0.14227741  0.29265264  0.51627431     0.06900
F824        F  0.11814753  0.31866760  0.54691670    -0.19000
H825        H  0.12228095  0.31095075  0.58967759     0.16700
F826        F  0.17386235  0.26113022  0.58267474    -0.22700
H827        H  0.16949484  0.26869380  0.54021833     0.18500
C828        C  0.15972199  0.29418776  0.50162720     0.26500
C829        C  0.15714217  0.29132733  0.47832233    -0.11200
C830        C  0.13725647  0.28636454  0.46928536    -0.25300
C831        C  0.11970761  0.28562388  0.48378341     0.37400
C832        C  0.12220436  0.28893211  0.50698967    -0.26900
F833        F  0.17935692  0.29784283  0.50990781    -0.19000
H834        H  0.17087581  0.29183426  0.46749873     0.16700
F835        F  0.10019485  0.28117571  0.47557663    -0.22700
H836        H  0.10856301  0.28746352  0.51786532     0.18500
C837        C  0.14264423  0.29722954  0.29601020    -0.26800
C838        C  0.16232855  0.30710827  0.29280392     0.06800
C839        C  0.17545676  0.31026474  0.31179025     0.26500
C840        C  0.16914379  0.30329947  0.33313908    -0.11300
C841        C  0.14995619  0.29255197  0.33595511    -0.25200
C842        C  0.13665615  0.28972329  0.31720666     0.37300
C843        C  0.16935219  0.31343288  0.26970072     0.06900
F844        F  0.19487687  0.31911239  0.30962667    -0.19000
H845        H  0.17972585  0.30547673  0.34732785     0.16700
F846        F  0.11777192  0.27974566  0.31939350    -0.22700
H847        H  0.13185244  0.29514359  0.28202375     0.18500
C848        C  0.16597065  0.30011148  0.25079127     0.26500
C849        C  0.17368302  0.30575910  0.22950160    -0.11200
C850        C  0.18538208  0.32444295  0.22663623    -0.25300
C851        C  0.18852332  0.33788934  0.24536245     0.37400
C852        C  0.18023570  0.33261781  0.26646794    -0.26900
F853        F  0.15608120  0.28114582  0.25296209    -0.19000
H854        H  0.17120465  0.29505611  0.21536643     0.16700
F855        F  0.19950515  0.35625338  0.24327348    -0.22700
H856        H  0.18252354  0.34357709  0.28038539     0.18500
C857        C  0.48728499  0.18701935  0.14819291    -0.26800
C858        C  0.49957244  0.16922859  0.15347806     0.06800
C859        C  0.48926511  0.15027420  0.15935763     0.26500
C860        C  0.46731152  0.14933422  0.16042825    -0.11300
C861        C  0.45499302  0.16713337  0.15547822    -0.25200
C862        C  0.46519727  0.18599438  0.14901879     0.37300
C863        C  0.52302873  0.17024730  0.15297495     0.06900
F864        F  0.50037905  0.13241762  0.16365849    -0.19000
H865        H  0.45994839  0.13453757  0.16516044     0.16700
F866        F  0.45392038  0.20339463  0.14337203    -0.22700
H867        H  0.49477189  0.20181767  0.14369590     0.18500
C868        C  0.53399659  0.17931671  0.13474825     0.26500
C869        C  0.55605303  0.17836003  0.13379165    -0.11200
C870        C  0.56747943  0.16795559  0.15066658    -0.25300
C871        C  0.55659171  0.15953508  0.16920725     0.37400
C872        C  0.53467487  0.16102975  0.17048050    -0.26900
F873        F  0.52343322  0.18804260  0.11725343    -0.19000
H874        H  0.56411381  0.18487218  0.11932223     0.16700
F875        F  0.56708914  0.14967313  0.18605467    -0.22700
H876        H  0.52672060  0.15452030  0.18505382     0.18500
C877        C  0.35766762  0.14291776  0.05407244    -0.26800
C878        C  0.37248307  0.12923888  0.04415560     0.06800
C879        C  0.38631732  0.11803328  0.05818177     0.26500
C880        C  0.38624314  0.12156867  0.08153595    -0.11300
C881        C  0.37245997  0.13643648  0.09134255    -0.25200
C882        C  0.35760871  0.14652870  0.07740977     0.37300
C883        C  0.37544479  0.12927041  0.01929891     0.06900
F884        F  0.40044009  0.10425295  0.04916561    -0.19000
H885        H  0.39775342  0.11346603  0.09178561     0.16700
F886        F  0.34363750  0.16062753  0.08613376    -0.22700
H887        H  0.34692777  0.15177299  0.04358254     0.18500
C888        C  0.35873301  0.12488603  0.00435631     0.26500
C889        C  0.36122082  0.12820524  0.98109515    -0.11200
C890        C  0.38024234  0.13640406  0.97251534    -0.25300
C891        C  0.39723002  0.13970478  0.98742819     0.37400
C892        C  0.39483694  0.13605464  0.01048641    -0.26900
F893        F  0.33987496  0.11799674  0.01234091    -0.19000
H894        H  0.34791794  0.12551713  0.97000174     0.16700
F895        F  0.41600418  0.14722772  0.97985707    -0.22700
H896        H  0.40787786  0.13962826  0.02167472     0.18500
C897        C  0.28379127  0.26180305  0.15395406    -0.26800
C898        C  0.30299667  0.26778003  0.16384128     0.06800
C899        C  0.30572270  0.28870895  0.17148502     0.26500
C900        C  0.28907840  0.30319685  0.16993372    -0.11300
C901        C  0.26956567  0.29700631  0.16063553    -0.25200
C902        C  0.26725249  0.27619365  0.15226747     0.37300
C903        C  0.31963032  0.25164941  0.16652385     0.06900
F904        F  0.32413239  0.29487474  0.18121268    -0.19000
H905        H  0.29129905  0.31908078  0.17646484     0.16700
F906        F  0.24895204  0.26956575  0.14263196    -0.22700
H907        H  0.28155496  0.24580982  0.14766922     0.18500
C908        C  0.31516593  0.23293714  0.17823364     0.26500
C909        C  0.32965221  0.21639460  0.17831038    -0.11200
C910        C  0.34882443  0.21803237  0.16653391    -0.25300
C911        C  0.35377874  0.23721929  0.15571281     0.37400
C912        C  0.33924800  0.25392261  0.15580513    -0.26900
F913        F  0.29648234  0.23044776  0.18911588    -0.19000
H914        H  0.32548515  0.20196771  0.18702898     0.16700
F915        F  0.37215183  0.23954956  0.14422734    -0.22700
H916        H  0.34288687  0.26823482  0.14665786     0.18500
C917        C  0.32417960  0.11499922  0.50851665    -0.26800
C918        C  0.34132990  0.10388751  0.51749839     0.06800
C919        C  0.35463576  0.09261882  0.50269636     0.26500
C920        C  0.35025555  0.09178692  0.47948733    -0.11300
C921        C  0.33227104  0.10177277  0.47073447    -0.25200
C922        C  0.31956532  0.11385605  0.48546341     0.37300
C923        C  0.34340372  0.10201470  0.54239858     0.06900
F924        F  0.37147451  0.08187910  0.51081113    -0.19000
H925        H  0.36026475  0.08236190  0.46857157     0.16700
F926        F  0.30223359  0.12404951  0.47771771    -0.22700
H927        H  0.31362979  0.12364042  0.51957410     0.18500
C928        C  0.34396795  0.12002790  0.55653032     0.26500
C929        C  0.34218168  0.11791874  0.57999577    -0.11200
C930        C  0.33947089  0.09786184  0.58968680    -0.25300
C931        C  0.34025875  0.07980549  0.57564977     0.37400
C932        C  0.34227348  0.08191041  0.55228141    -0.26900
F933        F  0.34557618  0.13968206  0.54759491    -0.19000
H934        H  0.34165061  0.13202592  0.59043214     0.16700
F935        F  0.33837762  0.06010501  0.58444814    -0.22700
H936        H  0.34178036  0.06782660  0.54177846     0.18500
C937        C  0.22019801  0.14042848  0.40131187    -0.26800
C938        C  0.22496229  0.16218387  0.40114288     0.06800
C939        C  0.24631608  0.16850558  0.40099033     0.26500
C940        C  0.26235135  0.15341796  0.40112117    -0.11300
C941        C  0.25759566  0.13169044  0.40122394    -0.25200
C942        C  0.23629413  0.12531051  0.40121569     0.37300
C943        C  0.20777182  0.17819780  0.40169828     0.06900
F944        F  0.25182386  0.18928526  0.40033448    -0.19000
H945        H  0.27856085  0.15881665  0.40109638     0.16700
F946        F  0.23091814  0.10449723  0.40123426    -0.22700
H947        H  0.20402545  0.13507589  0.40193472     0.18500
C948        C  0.18946837  0.17601619  0.38833962     0.26500
C949        C  0.17390962  0.19174037  0.38871671    -0.11200
C950        C  0.17654705  0.21004033  0.40202649    -0.25300
C951        C  0.19459055  0.21198506  0.41564681     0.37400
C952        C  0.20978034  0.19610514  0.41571756    -0.26900
F953        F  0.18692093  0.15915670  0.37426923    -0.19000
H954        H  0.16020594  0.18994214  0.37807225     0.16700
F955        F  0.19760211  0.22924064  0.42906005    -0.22700
H956        H  0.22318631  0.19789167  0.42679890     0.18500
C957        C  0.37112193  0.13283966  0.26576539    -0.26800
C958        C  0.35630679  0.11628797  0.26736778     0.06800
C959        C  0.34815384  0.10760107  0.24715008     0.26500
C960        C  0.35470529  0.11534871  0.22612311    -0.11300
C961        C  0.36956893  0.13185412  0.22462013    -0.25200
C962        C  0.37777904  0.14045675  0.24480318     0.37300
C963        C  0.34906924  0.10883844  0.29010298     0.06900
F964        F  0.33406925  0.09138911  0.24759665    -0.19000
H965        H  0.34803091  0.10842379  0.21094615     0.16700
F966        F  0.39203637  0.15652801  0.24442578    -0.22700
H967        H  0.37731784  0.14032028  0.28087761     0.18500
C968        C  0.36338029  0.10635257  0.30812601     0.26500
C969        C  0.35616268  0.10116296  0.32979591    -0.11200
C970        C  0.33461921  0.09770980  0.33399497    -0.25300
C971        C  0.32042428  0.09918538  0.31575785     0.37400
C972        C  0.32755669  0.10499381  0.29428313    -0.26900
F973        F  0.38443590  0.10867537  0.30478838    -0.19000
H974        H  0.36752494  0.09977409  0.34335424     0.16700
F975        F  0.29947240  0.09569768  0.31874085    -0.22700
H976        H  0.31601837  0.10703494  0.28100812     0.18500
C977        C  0.78616060  0.47725974  0.87061018    -0.26800
C978        C  0.80527812  0.46620183  0.87205963     0.06800
C979        C  0.82431454  0.47761544  0.87288692     0.26500
C980        C  0.82421797  0.49968564  0.87212325    -0.11300
C981        C  0.80514664  0.51086453  0.87058358    -0.25200
C982        C  0.78603593  0.49941732  0.86985524     0.37300
C983        C  0.80550724  0.44278279  0.87240796     0.06900
F984        F  0.84302608  0.46741463  0.87494995    -0.19000
H985        H  0.83911842  0.50801899  0.87296421     0.16700
F986        F  0.76724425  0.50953692  0.86832250    -0.22700
H987        H  0.77137506  0.46872027  0.86980748     0.18500
C988        C  0.79401948  0.43142451  0.88862472     0.26500
C989        C  0.79557328  0.40933751  0.88953835    -0.11200
C990        C  0.80874175  0.39832147  0.87443680    -0.25300
C991        C  0.81974908  0.40970370  0.85784270     0.37400
C992        C  0.81805658  0.43169682  0.85684636    -0.26900
F993        F  0.78208022  0.44173447  0.90419451    -0.19000
H994        H  0.78703303  0.40093924  0.90248511     0.16700
F995        F  0.83214320  0.39961427  0.84252153    -0.22700
H996        H  0.82674439  0.44015173  0.84401920     0.18500
C997        C  0.83088303  0.60213885  0.76705325    -0.26800
C998        C  0.84987946  0.61347997  0.76560554     0.06800
C999        C  0.86180347  0.61678354  0.78533743     0.26500
C1000       C  0.85450887  0.60925750  0.80614642    -0.11300
C1001       C  0.83526885  0.59821064  0.80765765    -0.25200
C1002       C  0.82367611  0.59445568  0.78771168     0.37300
C1003       C  0.85689095  0.62190269  0.74347111     0.06900
F1004       F  0.88065666  0.62697785  0.78442224    -0.19000
H1005       H  0.86386984  0.61221687  0.82112349     0.16700
F1006       F  0.80518682  0.58356571  0.78807404    -0.22700
H1007       H  0.82139023  0.59945948  0.75210342     0.18500
C1008       C  0.85812478  0.60858725  0.72440064     0.26500
C1009       C  0.86403786  0.61672536  0.70343164    -0.11200
C1010       C  0.86867080  0.63834057  0.70091642    -0.25300
C1011       C  0.86727371  0.65173818  0.72004351     0.37400
C1012       C  0.86155571  0.64351245  0.74106579    -0.26900
F1013       F  0.85386299  0.58759407  0.72611059    -0.19000
H1014       H  0.86495250  0.60603821  0.68909718     0.16700
F1015       F  0.87114848  0.67283359  0.71848735    -0.22700
H1016       H  0.86034876  0.65413243  0.75543551     0.18500
C1017       C  0.69981061  0.93752735  0.66457101    -0.26800
C1018       C  0.71399436  0.94988721  0.65199220     0.06800
C1019       C  0.72792010  0.93962106  0.63699631     0.26500
C1020       C  0.72723072  0.91760435  0.63432159    -0.11300
C1021       C  0.71244983  0.90539007  0.64620727    -0.25200
C1022       C  0.69881392  0.91556552  0.66153988     0.37300
C1023       C  0.71331330  0.97342144  0.65360621     0.06900
F1024       F  0.74155672  0.95088141  0.62409591    -0.19000
H1025       H  0.73784082  0.91019409  0.62241213     0.16700
F1026       F  0.68451146  0.90436016  0.67366409    -0.22700
H1027       H  0.68928713  0.94490731  0.67659976     0.18500
C1028       C  0.69390321  0.98416393  0.65291082     0.26500
C1029       C  0.69334714  0.00625881  0.65286795    -0.11200
C1030       C  0.71206692  0.01823101  0.65324289    -0.25300
C1031       C  0.73148148  0.00756226  0.65463500     0.37400
C1032       C  0.73203752  0.98538720  0.65491401    -0.26900
F1033       F  0.67542665  0.97336352  0.65112562    -0.19000
H1034       H  0.67817179  0.01398242  0.65182574     0.16700
F1035       F  0.74995211  0.01846450  0.65535388    -0.22700
H1036       H  0.74714749  0.97756193  0.65594359     0.18500
C1037       C  0.78031530  0.76458937  0.61531796    -0.26800
C1038       C  0.79880039  0.76886444  0.62750568     0.06800
C1039       C  0.80113423  0.78870724  0.63819626     0.26500
C1040       C  0.78452009  0.80335596  0.63788421    -0.11300
C1041       C  0.76546766  0.79838743  0.62686543    -0.25200
C1042       C  0.76383767  0.77911115  0.61495337     0.37300
C1043       C  0.81477884  0.75191559  0.62973873     0.06900
F1044       F  0.81894527  0.79346713  0.64988669    -0.19000
H1045       H  0.78622143  0.81815700  0.64702186     0.16700
F1046       F  0.74615066  0.77407337  0.60317991    -0.22700
H1047       H  0.77845145  0.74967074  0.60640192     0.18500
C1048       C  0.80850094  0.73158151  0.63659040     0.26500
C1049       C  0.82298944  0.71504894  0.63702706    -0.11200
C1050       C  0.84416900  0.71841333  0.63105133    -0.25300
C1051       C  0.85066588  0.73891976  0.62485874     0.37400
C1052       C  0.83602019  0.75550673  0.62415708    -0.26900
F1053       F  0.78832143  0.72773657  0.64312095    -0.19000
H1054       H  0.81757699  0.69954616  0.64224349     0.16700
F1055       F  0.87100785  0.74288884  0.61910299    -0.22700
H1056       H  0.84115577  0.77102540  0.61877643     0.18500
C1057       C  0.73807655  0.65521615  0.88743422    -0.26800
C1058       C  0.72161394  0.65295718  0.87184371     0.06800
C1059       C  0.72081593  0.63487172  0.85794527     0.26500
C1060       C  0.73649439  0.61937368  0.85954373    -0.11300
C1061       C  0.75331946  0.62191926  0.87476622    -0.25200
C1062       C  0.75381038  0.63990850  0.88891986     0.37300
C1063       C  0.70603686  0.67014527  0.86964054     0.06900
F1064       F  0.70551719  0.63275270  0.84209275    -0.19000
H1065       H  0.73594030  0.60584572  0.84827526     0.16700
F1066       F  0.76961362  0.64286877  0.90405678    -0.22700
H1067       H  0.73886485  0.66905864  0.89830480     0.18500
C1068       C  0.68451061  0.66667098  0.87387649     0.26500
C1069       C  0.67033334  0.68363218  0.87348422    -0.11200
C1070       C  0.67743741  0.70426103  0.86882457    -0.25300
C1071       C  0.69897231  0.70747545  0.86385805     0.37400
C1072       C  0.71306675  0.69057475  0.86440455    -0.26900
F1073       F  0.67740077  0.64709842  0.87941902    -0.19000
H1074       H  0.65390126  0.68070985  0.87742263     0.16700
F1075       F  0.70664435  0.72701683  0.85902558    -0.22700
H1076       H  0.72957289  0.69346406  0.86102730     0.18500
C1077       C  0.68112277  0.79841773  0.78526690    -0.26800
C1078       C  0.66606812  0.79989569  0.76786238     0.06800
C1079       C  0.64482275  0.79533390  0.77300941     0.26500
C1080       C  0.63901639  0.78900664  0.79471898    -0.11300
C1081       C  0.65404718  0.78768432  0.81201689    -0.25200
C1082       C  0.67516410  0.79272695  0.80717168     0.37300
C1083       C  0.67259630  0.80609104  0.74454243     0.06900
F1084       F  0.62950052  0.79731772  0.75721622    -0.19000
H1085       H  0.62266583  0.78523451  0.79805651     0.16700
F1086       F  0.69024038  0.79115731  0.82330046    -0.22700
H1087       H  0.69763466  0.80120874  0.78186984     0.18500
C1088       C  0.68765605  0.82220140  0.74106063     0.26500
C1089       C  0.69386420  0.82767158  0.71925237    -0.11200
C1090       C  0.68493960  0.81766403  0.70028606    -0.25300
C1091       C  0.66962999  0.80184775  0.70356594     0.37400
C1092       C  0.66381387  0.79590850  0.72546484    -0.26900
F1093       F  0.69609596  0.83313993  0.75866129    -0.19000
H1094       H  0.70551015  0.84003509  0.71720802     0.16700
F1095       F  0.66074298  0.79167508  0.68569908    -0.22700
H1096       H  0.65264532  0.78311054  0.72743985     0.18500
C1097       C  0.73288792  0.93987559  0.39042746    -0.26800
C1098       C  0.71513862  0.95207000  0.38518821     0.06800
C1099       C  0.69661563  0.94199531  0.37778030     0.26500
C1100       C  0.69575459  0.91995793  0.37611464    -0.11300
C1101       C  0.71338900  0.90761155  0.38163496    -0.25200
C1102       C  0.73205511  0.91777544  0.38874304     0.37300
C1103       C  0.71592324  0.97531485  0.38744493     0.06900
F1104       F  0.67947604  0.95351591  0.37184885    -0.19000
H1105       H  0.68126689  0.91254006  0.37038860     0.16700
F1106       F  0.74927415  0.90639966  0.39468506    -0.22700
H1107       H  0.74723084  0.94747311  0.39615966     0.18500
C1108       C  0.70297865  0.98578967  0.40313169     0.26500
C1109       C  0.70261636  0.00789594  0.40398343    -0.11200
C1110       C  0.71527011  0.01988684  0.38935021    -0.25300
C1111       C  0.72882033  0.00929543  0.37422079     0.37400
C1112       C  0.72908365  0.98716702  0.37332338    -0.26900
F1113       F  0.69068515  0.97459077  0.41754557    -0.19000
H1114       H  0.69222287  0.01568395  0.41600342     0.16700
F1115       F  0.74110734  0.02026451  0.35962216    -0.22700
H1116       H  0.73914758  0.97923243  0.36112182     0.18500
C1117       C  0.69671091  0.81742662  0.48625897    -0.26800
C1118       C  0.67823700  0.82671644  0.49472438     0.06800
C1119       C  0.66391858  0.83587241  0.47958111     0.26500
C1120       C  0.66832034  0.83603530  0.45636763    -0.11300
C1121       C  0.68734867  0.82765505  0.44803791    -0.25200
C1122       C  0.70138119  0.81805820  0.46323843     0.37300
C1123       C  0.67568318  0.82882786  0.51950001     0.06900
F1124       F  0.64597585  0.84508864  0.48729325    -0.19000
H1125       H  0.65736410  0.84362634  0.44507079     0.16700
F1126       F  0.71988556  0.80966445  0.45595851    -0.22700
H1127       H  0.70803295  0.81054022  0.49766918     0.18500
C1128       C  0.67492881  0.81086520  0.53334131     0.26500
C1129       C  0.67749806  0.81292377  0.55675651    -0.11200
C1130       C  0.68122574  0.83290574  0.56664962    -0.25300
C1131       C  0.68039070  0.85097896  0.55287192     0.37400
C1132       C  0.67753949  0.84890204  0.52956502    -0.26900
F1133       F  0.67275584  0.79127020  0.52406249    -0.19000
H1134       H  0.67795208  0.79878499  0.56690705     0.16700
F1135       F  0.68342780  0.87063258  0.56172313    -0.22700
H1136       H  0.67822289  0.86291060  0.51918077     0.18500
C1137       C  0.64940937  0.76093577  0.02789736    -0.26800
C1138       C  0.64685896  0.78122594  0.01884538     0.06800
C1139       C  0.64230948  0.79820350  0.03360178     0.26500
C1140       C  0.64066796  0.79481047  0.05698161    -0.11300
C1141       C  0.64309662  0.77437702  0.06591858    -0.25200
C1142       C  0.64753763  0.75748577  0.05100949     0.37300
C1143       C  0.64839165  0.78384998  0.99393131     0.06900
F1144       F  0.63966726  0.81803948  0.02546704    -0.19000
H1145       H  0.63711989  0.80804821  0.06801614     0.16700
F1146       F  0.65018486  0.73747763  0.05870643    -0.22700
H1147       H  0.65254078  0.74754189  0.01692723     0.18500
C1148       C  0.66539817  0.77492269  0.98194733     0.26500
C1149       C  0.66477241  0.77326748  0.95842070    -0.11200
C1150       C  0.64745268  0.78095756  0.94624592    -0.25300
C1151       C  0.63129176  0.79156910  0.95804501     0.37400
C1152       C  0.63171053  0.79283350  0.98170454    -0.26900
F1153       F  0.68231653  0.76707539  0.99309968    -0.19000
H1154       H  0.67753417  0.76529969  0.94975118     0.16700
F1155       F  0.61425795  0.79915994  0.94691311    -0.22700
H1156       H  0.61840043  0.79970320  0.99050285     0.18500
C1157       C  0.66275762  0.81857557  0.22527497    -0.26800
C1158       C  0.66208367  0.80583360  0.24463125     0.06800
C1159       C  0.65577431  0.78455991  0.24227132     0.26500
C1160       C  0.65022502  0.77631323  0.22113890    -0.11300
C1161       C  0.65087712  0.78896558  0.20172048    -0.25200
C1162       C  0.65720096  0.81028362  0.20402607     0.37300
C1163       C  0.66814362  0.81447246  0.26721782     0.06900
F1164       F  0.65554090  0.77149673  0.26034122    -0.19000
H1165       H  0.64561486  0.75983388  0.21998229     0.16700
F1166       F  0.65786370  0.82318569  0.18585467    -0.22700
H1167       H  0.66739376  0.83503133  0.22664820     0.18500
C1168       C  0.68745974  0.82507884  0.27050924     0.26500
C1169       C  0.69381102  0.83124323  0.29222929    -0.11200
C1170       C  0.68104775  0.82709034  0.31115790    -0.25300
C1171       C  0.66128347  0.81739465  0.30769058     0.37400
C1172       C  0.65498599  0.81115336  0.28598216    -0.26900
F1173       F  0.70068805  0.82858811  0.25291311    -0.19000
H1174       H  0.70905955  0.83875300  0.29427551     0.16700
F1175       F  0.64812809  0.81361355  0.32526753    -0.22700
H1176       H  0.63984188  0.80343548  0.28384582     0.18500
C1177       C  0.85589063  0.62976620  0.53413153    -0.26800
C1178       C  0.87180515  0.63523163  0.51871577     0.06800
C1179       C  0.89099932  0.64326702  0.52688402     0.26500
C1180       C  0.89402882  0.64635556  0.54999820    -0.11300
C1181       C  0.87800764  0.64149885  0.56556137    -0.25200
C1182       C  0.85899378  0.63266246  0.55743371     0.37300
C1183       C  0.86789683  0.63492461  0.49408640     0.06900
F1184       F  0.90641726  0.64926716  0.51235570    -0.19000
H1185       H  0.90878745  0.65320565  0.55567537     0.16700
F1186       F  0.84301945  0.62791899  0.57179469    -0.22700
H1187       H  0.84089911  0.62379734  0.52806634     0.18500
C1188       C  0.87795043  0.62017055  0.47986191     0.26500
C1189       C  0.87729437  0.62259342  0.45634822    -0.11200
C1190       C  0.86695235  0.64000725  0.44674719    -0.25300
C1191       C  0.85594376  0.65407099  0.46108397     0.37400
C1192       C  0.85638985  0.65145134  0.48447248    -0.26900
F1193       F  0.88914506  0.60398797  0.48877521    -0.19000
H1194       H  0.88588037  0.61155580  0.44575660     0.16700
F1195       F  0.84535853  0.67086479  0.45257932    -0.22700
H1196       H  0.84865460  0.66302479  0.49519062     0.18500
C1197       C  0.76616755  0.75607965  0.35870670    -0.26800
C1198       C  0.78668275  0.75928131  0.36695001     0.06800
C1199       C  0.79191468  0.77896477  0.37679304     0.26500
C1200       C  0.77678401  0.79497836  0.37847626    -0.11300
C1201       C  0.75610340  0.79148905  0.37082876    -0.25200
C1202       C  0.75093589  0.77185196  0.36086591     0.37300
C1203       C  0.80216793  0.74173275  0.36617068     0.06900
F1204       F  0.81135681  0.78241744  0.38567698    -0.19000
H1205       H  0.78107873  0.80988003  0.38636737     0.16700
F1206       F  0.73117165  0.76784078  0.35311355    -0.22700
H1207       H  0.76184736  0.74121897  0.35071838     0.18500
C1208       C  0.79643586  0.72134318  0.37340854     0.26500
C1209       C  0.81133875  0.70517255  0.37383666    -0.11200
C1210       C  0.83227675  0.70893734  0.36723154    -0.25300
C1211       C  0.83790943  0.72912157  0.35930340     0.37400
C1212       C  0.82292412  0.74532941  0.35874477    -0.26900
F1213       F  0.77664916  0.71720839  0.38099379    -0.19000
H1214       H  0.80657579  0.68977547  0.38001701     0.16700
F1215       F  0.85779889  0.73319321  0.35201080    -0.22700
H1216       H  0.82756130  0.76075710  0.35256801     0.18500
C1217       C  0.82292462  0.47936064  0.13782354    -0.26800
C1218       C  0.80446684  0.46897445  0.13076415     0.06800
C1219       C  0.78674350  0.48109425  0.12490865     0.26500
C1220       C  0.78769857  0.50326856  0.12587739    -0.11300
C1221       C  0.80637429  0.51363602  0.13253919    -0.25200
C1222       C  0.82396545  0.50139801  0.13863006     0.37300
C1223       C  0.80411962  0.44552131  0.12985674     0.06900
F1224       F  0.76876642  0.47154816  0.11761107    -0.19000
H1225       H  0.77402316  0.51229565  0.12100642     0.16700
F1226       F  0.84220860  0.51064975  0.14559289    -0.22700
H1227       H  0.83658730  0.47035120  0.14284132     0.18500
C1228       C  0.82047497  0.43440325  0.11903366     0.26500
C1229       C  0.82143487  0.41237187  0.12026527    -0.11200
C1230       C  0.80589888  0.40093440  0.13192608    -0.25300
C1231       C  0.78911164  0.41197737  0.14211420     0.37400
C1232       C  0.78830974  0.43411122  0.14113539    -0.26900
F1233       F  0.83553021  0.44487141  0.10718864    -0.19000
H1234       H  0.83432997  0.40425319  0.11201951     0.16700
F1235       F  0.77391163  0.40150613  0.15372251    -0.22700
H1236       H  0.77573525  0.44235947  0.14975996     0.18500
C1237       C  0.84852909  0.57826159  0.02780178    -0.26800
C1238       C  0.83468421  0.59004084  0.01429515     0.06800
C1239       C  0.81913659  0.60248224  0.02478716     0.26500
C1240       C  0.81702647  0.60256700  0.04822645    -0.11300
C1241       C  0.83048041  0.59045902  0.06179222    -0.25200
C1242       C  0.84664896  0.57865848  0.05141734     0.37300
C1243       C  0.83505626  0.58795146  0.98933766     0.06900
F1244       F  0.80511205  0.61356400  0.01229238    -0.19000
H1245       H  0.80440099  0.61166886  0.05577318     0.16700
F1246       F  0.85974122  0.56650476  0.06391790    -0.22700
H1247       H  0.86046405  0.56845367  0.02002709     0.18500
C1248       C  0.83693127  0.60584441  0.97546499     0.26500
C1249       C  0.83436920  0.60394747  0.95204554    -0.11200
C1250       C  0.82946257  0.58425417  0.94216504    -0.25300
C1251       C  0.82844517  0.56623934  0.95600406     0.37400
C1252       C  0.83139804  0.56809780  0.97930733    -0.26900
F1253       F  0.84064293  0.62523872  0.98466228    -0.19000
H1254       H  0.83516256  0.61802499  0.94180762     0.16700
F1255       F  0.82403503  0.54686322  0.94709119    -0.22700
H1256       H  0.82981143  0.55415290  0.98967677     0.18500
C1257       C  0.72384961  0.63807629  0.13565548    -0.26800
C1258       C  0.72912980  0.65963233  0.13386322     0.06800
C1259       C  0.75050642  0.66542616  0.13237348     0.26500
C1260       C  0.76623859  0.65002142  0.13300209    -0.11300
C1261       C  0.76107570  0.62845416  0.13500774    -0.25200
C1262       C  0.73963791  0.62258843  0.13623933     0.37300
C1263       C  0.71248907  0.67613178  0.13451680     0.06900
F1264       F  0.75620495  0.68602014  0.12993186    -0.19000
H1265       H  0.78252544  0.65503402  0.13175563     0.16700
F1266       F  0.73387245  0.60196692  0.13816495    -0.22700
H1267       H  0.70752837  0.63327409  0.13703685     0.18500
C1268       C  0.69472844  0.67502886  0.12032756     0.26500
C1269       C  0.67918906  0.69074334  0.12146029    -0.11200
C1270       C  0.68138738  0.70802999  0.13633278    -0.25300
C1271       C  0.69929465  0.70929114  0.15022023     0.37400
C1272       C  0.71449485  0.69334297  0.14951268    -0.26900
F1273       F  0.69273723  0.65918266  0.10488134    -0.19000
H1274       H  0.66573425  0.68970040  0.11034505     0.16700
F1275       F  0.70191186  0.72571282  0.16485580    -0.22700
H1276       H  0.72786505  0.69440803  0.16078308     0.18500
C1277       C  0.84162348  0.58874396  0.23853105    -0.26800
C1278       C  0.85360853  0.60712882  0.24243594     0.06800
C1279       C  0.86047916  0.61900430  0.22376395     0.26500
C1280       C  0.85440575  0.61314534  0.20183100    -0.11300
C1281       C  0.84129170  0.59548431  0.19814098    -0.25200
C1282       C  0.83547206  0.58297224  0.21671623     0.37300
C1283       C  0.85806094  0.61409909  0.26601734     0.06900
F1284       F  0.87205603  0.63691392  0.22676927    -0.19000
H1285       H  0.85915641  0.62300322  0.18783301     0.16700
F1286       F  0.82359951  0.56522935  0.21387452    -0.22700
H1287       H  0.83668637  0.57896990  0.25251548     0.18500
C1288       C  0.84174146  0.61503114  0.28217027     0.26500
C1289       C  0.84596808  0.62143829  0.30436938    -0.11200
C1290       C  0.86636460  0.62767581  0.31073963    -0.25300
C1291       C  0.88265817  0.62692536  0.29460268     0.37400
C1292       C  0.87855713  0.61997135  0.27256296    -0.26900
F1293       F  0.82150636  0.61067956  0.27623151    -0.19000
H1294       H  0.83308221  0.62242390  0.31635027     0.16700
F1295       F  0.90259608  0.63285266  0.30017318    -0.22700
H1296       H  0.89143042  0.61920652  0.26057040     0.18500
C1297       C  0.03358049  0.65107123  0.65593696    -0.26800
C1298       C  0.02256559  0.66922085  0.64928241     0.06800
C1299       C  0.03396104  0.68769313  0.64406647     0.26500
C1300       C  0.05602260  0.68777209  0.64500910    -0.11300
C1301       C  0.06704930  0.66939721  0.65099169    -0.25200
C1302       C  0.05559676  0.65109781  0.65678044     0.37300
C1303       C  0.99926858  0.66854655  0.64729933     0.06900
F1304       F  0.02381459  0.70538165  0.63715095    -0.19000
H1305       H  0.06447954  0.70198355  0.64040869     0.16700
F1306       F  0.06564222  0.63324254  0.66340510    -0.22700
H1307       H  0.02509071  0.63681968  0.66041091     0.18500
C1308       C  0.98935114  0.65262300  0.63441296     0.26500
C1309       C  0.96738026  0.65200219  0.63263004    -0.11200
C1310       C  0.95486580  0.66737534  0.64339732    -0.25300
C1311       C  0.96480253  0.68334503  0.65627568     0.37400
C1312       C  0.98680714  0.68383582  0.65823676    -0.26900
F1313       F  0.00094730  0.63801976  0.62299738    -0.19000
H1314       H  0.96015931  0.63966688  0.62245031     0.16700
F1315       F  0.95329259  0.69824997  0.66731467    -0.22700
H1316       H  0.99413054  0.69606988  0.66844227     0.18500
C1317       C  0.20005467  0.48356987  0.88490950    -0.26800
C1318       C  0.21809336  0.47370575  0.89363440     0.06800
C1319       C  0.23592380  0.48620999  0.89861973     0.26500
C1320       C  0.23534948  0.50819971  0.89563612    -0.11300
C1321       C  0.21698431  0.51814397  0.88774724    -0.25200
C1322       C  0.19941488  0.50549845  0.88203986     0.37300
C1323       C  0.21783537  0.45047988  0.89766841     0.06900
F1324       F  0.25360070  0.47734211  0.90726043    -0.19000
H1325       H  0.24906477  0.51749046  0.90013298     0.16700
F1326       F  0.18150172  0.51424263  0.87379699    -0.22700
H1327       H  0.18633890  0.47425746  0.88038620     0.18500
C1328       C  0.20069603  0.44101961  0.90886178     0.26500
C1329       C  0.19955484  0.41905925  0.91106296    -0.11200
C1330       C  0.21550706  0.40595363  0.90234808    -0.25300
C1331       C  0.23310149  0.41541338  0.89188210     0.37400
C1332       C  0.23418526  0.43748446  0.88955143    -0.26900
F1333       F  0.18496866  0.45301810  0.91772995    -0.19000
H1334       H  0.18598568  0.41229666  0.91944187     0.16700
F1335       F  0.24887892  0.40339321  0.88316275    -0.22700
H1336       H  0.24744652  0.44434529  0.88076991     0.18500
C1337       C  0.14552562  0.63410607  0.75261302    -0.26800
C1338       C  0.16496837  0.62391059  0.75556019     0.06800
C1339       C  0.17772757  0.62017096  0.73644774     0.26500
C1340       C  0.17125216  0.62688442  0.71506768    -0.11300
C1341       C  0.15212964  0.63770904  0.71230803    -0.25200
C1342       C  0.13919085  0.64104776  0.73134266     0.37300
C1343       C  0.17173376  0.61723710  0.77851421     0.06900
F1344       F  0.19685515  0.61079971  0.73852756    -0.19000
H1345       H  0.18159581  0.62426669  0.70074791     0.16700
F1346       F  0.12032670  0.65098465  0.72945253    -0.22700
H1347       H  0.13512721  0.63670794  0.76687007     0.18500
C1348       C  0.16991263  0.63099758  0.79726475     0.26500
C1349       C  0.17633200  0.62446607  0.81870660    -0.11200
C1350       C  0.18503957  0.60429820  0.82186051    -0.25300
C1351       C  0.18672313  0.59050500  0.80319741     0.37400
C1352       C  0.17998355  0.59688488  0.78186294    -0.26900
F1353       F  0.16266318  0.65104124  0.79475950    -0.19000
H1354       H  0.17513217  0.63548816  0.83275965     0.16700
F1355       F  0.19469538  0.57072830  0.80558507    -0.22700
H1356       H  0.18113363  0.58578369  0.76789276     0.18500
C1357       C  0.32047241  0.94672965  0.64339660    -0.26800
C1358       C  0.30448721  0.95690132  0.65569359     0.06800
C1359       C  0.28865692  0.94466922  0.66595753     0.26500
C1360       C  0.28948345  0.92253161  0.66477047    -0.11300
C1361       C  0.30607144  0.91236400  0.65331042    -0.25200
C1362       C  0.32129650  0.92470026  0.64216704     0.37300
C1363       C  0.30512051  0.98019319  0.65832130     0.06900
F1364       F  0.27293403  0.95407520  0.67787658    -0.19000
H1365       H  0.27750459  0.91335835  0.67331218     0.16700
F1366       F  0.33693229  0.91550945  0.62992453    -0.22700
H1367       H  0.33247070  0.95590761  0.63488939     0.18500
C1368       C  0.32357227  0.99018372  0.66613797     0.26500
C1369       C  0.32477531  0.01220399  0.66730829    -0.11200
C1370       C  0.30758324  0.02473603  0.66085241    -0.25300
C1371       C  0.28882873  0.01471366  0.65369514     0.37400
C1372       C  0.28767527  0.99259562  0.65241828    -0.26900
F1373       F  0.34044806  0.97860090  0.67274570    -0.19000
H1374       H  0.33931430  0.01945246  0.67310900     0.16700
F1375       F  0.27180828  0.02620263  0.64735647    -0.22700
H1376       H  0.27337803  0.98517457  0.64630293     0.18500
C1377       C  0.24641079  0.76367538  0.65962459    -0.26800
C1378       C  0.22646354  0.76930759  0.65148201     0.06800
C1379       C  0.22267445  0.79041565  0.64537830     0.26500
C1380       C  0.23895129  0.80540316  0.64656322    -0.11300
C1381       C  0.25916549  0.79955691  0.65393892    -0.25200
C1382       C  0.26259461  0.77861799  0.66100435     0.37300
C1383       C  0.20985444  0.75291849  0.64962891     0.06900
F1384       F  0.20349429  0.79636433  0.63754819    -0.19000
H1385       H  0.23587403  0.82142463  0.64120138     0.16700
F1386       F  0.28154797  0.77251093  0.66932283    -0.22700
H1387       H  0.24943403  0.74762984  0.66498161     0.18500
C1388       C  0.21381314  0.73389018  0.63797146     0.26500
C1389       C  0.19885666  0.71763884  0.63800798    -0.11200
C1390       C  0.17963418  0.72007775  0.64953787    -0.25300
C1391       C  0.17543084  0.73936735  0.66067530     0.37400
C1392       C  0.19046318  0.75563970  0.66068263    -0.26900
F1393       F  0.23216974  0.73102829  0.62654495    -0.19000
H1394       H  0.20235520  0.70308889  0.62901349     0.16700
F1395       F  0.15719487  0.74224314  0.67227231    -0.22700
H1396       H  0.18725314  0.77009973  0.66992110     0.18500
C1397       C  0.49098883  0.77436009  0.89322829    -0.26800
C1398       C  0.50011279  0.75622682  0.88346626     0.06800
C1399       C  0.48690038  0.73936359  0.87683715     0.26500
C1400       C  0.46502276  0.74082403  0.87966957    -0.11300
C1401       C  0.45586471  0.75915870  0.88897551    -0.25200
C1402       C  0.46913159  0.77591083  0.89589054     0.37300
C1403       C  0.52335674  0.75517048  0.88029284     0.06900
F1404       F  0.49504378  0.72177199  0.86689631    -0.19000
H1405       H  0.45520086  0.72776814  0.87406858     0.16700
F1406       F  0.46106938  0.79379286  0.90531661    -0.22700
H1407       H  0.50083915  0.78736965  0.89888138     0.18500
C1408       C  0.53437401  0.77214039  0.87050479     0.26500
C1409       C  0.55633377  0.77164228  0.86878071    -0.11200
C1410       C  0.56788426  0.75426259  0.87672732    -0.25300
C1411       C  0.55684044  0.73698536  0.88595647     0.37400
C1412       C  0.53479089  0.73750287  0.88771431    -0.26900
F1413       F  0.52390821  0.78923646  0.86252046    -0.19000
H1414       H  0.56434343  0.78509883  0.86139947     0.16700
F1415       F  0.56729905  0.71990857  0.89396454    -0.22700
H1416       H  0.52668850  0.72433549  0.89549265     0.18500
C1417       C  0.27960380  0.66651213  0.87786986    -0.26800
C1418       C  0.30019222  0.65990857  0.88278232     0.06800
C1419       C  0.30380193  0.63845727  0.88760761     0.26500
C1420       C  0.28702465  0.62393263  0.88742234    -0.11300
C1421       C  0.26636637  0.63060111  0.88264394    -0.25200
C1422       C  0.26285947  0.65211347  0.87779360     0.37300
C1423       C  0.31751343  0.67576237  0.88316779     0.06900
F1424       F  0.32356482  0.63150280  0.89216095    -0.19000
H1425       H  0.29016536  0.60752376  0.89126236     0.16700
F1426       F  0.24325321  0.65935552  0.87294722    -0.22700
H1427       H  0.27642498  0.68299340  0.87436807     0.18500
C1428       C  0.32039489  0.68957294  0.86493328     0.26500
C1429       C  0.33490480  0.70620845  0.86642819    -0.11200
C1430       C  0.34712043  0.70916604  0.88591477    -0.25300
C1431       C  0.34499365  0.69478802  0.90378410     0.37400
C1432       C  0.33020285  0.67828137  0.90242408    -0.26900
F1433       F  0.30903974  0.68704509  0.84570707    -0.19000
H1434       H  0.33651048  0.71692302  0.85234339     0.16700
F1435       F  0.35629215  0.69739913  0.92303434    -0.22700
H1436       H  0.32809068  0.66796911  0.91673221     0.18500
C1437       C  0.36738219  0.79133068  0.78568579    -0.26800
C1438       C  0.36136074  0.81266023  0.78392645     0.06800
C1439       C  0.36064894  0.82507065  0.80380426     0.26500
C1440       C  0.36569721  0.81619268  0.82474971    -0.11300
C1441       C  0.37186050  0.79490303  0.82637458    -0.25200
C1442       C  0.37280137  0.78259071  0.80647741     0.37300
C1443       C  0.35513573  0.82130659  0.76146081     0.06900
F1444       F  0.35546525  0.84587973  0.80301254    -0.19000
H1445       H  0.36499127  0.82609504  0.83974021     0.16700
F1446       F  0.37843930  0.76188420  0.80707192    -0.22700
H1447       H  0.36752693  0.78114761  0.77089235     0.18500
C1448       C  0.36661778  0.81618009  0.74177851     0.26500
C1449       C  0.35924903  0.82214749  0.72049352    -0.11200
C1450       C  0.34043393  0.83358492  0.71823096    -0.25300
C1451       C  0.32961124  0.83985389  0.73798931     0.37400
C1452       C  0.33681944  0.83360956  0.75925022    -0.26900
F1453       F  0.38496592  0.80525479  0.74305472    -0.19000
H1454       H  0.36809898  0.81734649  0.70566718     0.16700
F1455       F  0.31175620  0.85160933  0.73684010    -0.22700
H1456       H  0.32752464  0.83777317  0.77397761     0.18500
C1457       C  0.97961618  0.65497385  0.36360984    -0.26800
C1458       C  0.98941257  0.67125342  0.37597708     0.06800
C1459       C  0.97690699  0.68614373  0.38750944     0.26500
C1460       C  0.95488121  0.68429624  0.38717388    -0.11300
C1461       C  0.94513741  0.66748591  0.37548900    -0.25200
C1462       C  0.95770166  0.65305921  0.36333604     0.37300
C1463       C  0.01265956  0.67172416  0.37761075     0.06900
F1464       F  0.98599890  0.70185350  0.39988893    -0.19000
H1465       H  0.94550366  0.69555727  0.39659516     0.16700
F1466       F  0.94881228  0.63719199  0.35100180    -0.22700
H1467       H  0.98901374  0.64358118  0.35434311     0.18500
C1468       C  0.02345005  0.65388625  0.38548667     0.26500
C1469       C  0.04539673  0.65379797  0.38625587    -0.11200
C1470       C  0.05710220  0.67150748  0.37930154    -0.25300
C1471       C  0.04629737  0.68954832  0.37165966     0.37400
C1472       C  0.02419904  0.68960421  0.37086280    -0.26900
F1473       F  0.01271225  0.63660693  0.39277555    -0.19000
H1474       H  0.05323198  0.63979294  0.39245357     0.16700
F1475       F  0.05699200  0.70693862  0.36462107    -0.22700
H1476       H  0.01609853  0.70342811  0.36463339     0.18500
C1477       C  0.11935749  0.66679162  0.49414872    -0.26800
C1478       C  0.13128667  0.65051031  0.50372061     0.06800
C1479       C  0.14017247  0.63504516  0.48940672     0.26500
C1480       C  0.13823131  0.63677040  0.46586334    -0.11300
C1481       C  0.12726965  0.65383347  0.45628774    -0.25200
C1482       C  0.11733150  0.66851029  0.47083373     0.37300
C1483       C  0.13524215  0.65090173  0.52845273     0.06900
F1484       F  0.15155058  0.61889210  0.49810475    -0.19000
H1485       H  0.14584842  0.62513518  0.45513240     0.16700
F1486       F  0.10590301  0.68487626  0.46262288    -0.22700
H1487       H  0.11188815  0.67858048  0.50484907     0.18500
C1488       C  0.14266611  0.66960373  0.53877174     0.26500
C1489       C  0.14449950  0.67101052  0.56215258    -0.11200
C1490       C  0.13910097  0.65383152  0.57593853    -0.25300
C1491       C  0.13256636  0.63473391  0.56566855     0.37400
C1492       C  0.13064822  0.63332351  0.54206917    -0.26900
F1493       F  0.14793011  0.68671659  0.52621085    -0.19000
H1494       H  0.14978415  0.68582101  0.56953441     0.16700
F1495       F  0.12691455  0.61788623  0.57840523    -0.22700
H1496       H  0.12480278  0.61881382  0.53451125     0.18500
C1497       C  0.23195916  0.48837883  0.16157810    -0.26800
C1498       C  0.21467965  0.47553463  0.15579526     0.06800
C1499       C  0.19589443  0.48501507  0.14852541     0.26500
C1500       C  0.19443135  0.50704172  0.14718611    -0.11300
C1501       C  0.21167203  0.52000578  0.15307394    -0.25200
C1502       C  0.23050219  0.51043898  0.16032551     0.37300
C1503       C  0.21606020  0.45230179  0.15810822     0.06900
F1504       F  0.17907067  0.47293930  0.14237890    -0.19000
H1505       H  0.17985246  0.51392762  0.14137721     0.16700
F1506       F  0.24738969  0.52233551  0.16661695    -0.22700
H1507       H  0.24643471  0.48131588  0.16744225     0.18500
C1508       C  0.23130372  0.44057267  0.14622390     0.26500
C1509       C  0.23204456  0.41851356  0.14829923    -0.11200
C1510       C  0.21756536  0.40790813  0.16221936    -0.25300
C1511       C  0.20272428  0.41977375  0.17455466     0.37400
C1512       C  0.20196551  0.44176050  0.17242171    -0.26900
F1513       F  0.24496711  0.45037248  0.13205466    -0.19000
H1514       H  0.24348753  0.40969849  0.13856278     0.16700
F1515       F  0.18911273  0.41015378  0.18891031    -0.22700
H1516       H  0.19040610  0.45061318  0.18200684     0.18500
C1517       C  0.18327753  0.57876934  0.03770729    -0.26800
C1518       C  0.18297341  0.59892351  0.02794665     0.06800
C1519       C  0.18341852  0.61690751  0.04207499     0.26500
C1520       C  0.18505768  0.61467836  0.06550296    -0.11300
C1521       C  0.18661532  0.59450556  0.07520122    -0.25200
C1522       C  0.18523669  0.57651189  0.06105961     0.37300
C1523       C  0.18471209  0.60084750  0.00309778     0.06900
F1524       F  0.18287898  0.63661930  0.03314587    -0.19000
H1525       H  0.18611005  0.62876776  0.07595915     0.16700
F1526       F  0.18635631  0.55670442  0.06969678    -0.22700
H1527       H  0.18305293  0.56472841  0.02710773     0.18500
C1528       C  0.20261285  0.61044939  0.99362693     0.26500
C1529       C  0.20602880  0.60953696  0.97039573    -0.11200
C1530       C  0.19165587  0.59915914  0.95601329    -0.25300
C1531       C  0.17308597  0.59057772  0.96531382     0.37400
C1532       C  0.16981313  0.59120273  0.98874074    -0.26900
F1533       F  0.21756758  0.61946912  0.00698969    -0.19000
H1534       H  0.22040193  0.61635998  0.96372920     0.16700
F1535       F  0.15872325  0.58055600  0.95202329    -0.22700
H1536       H  0.15597457  0.58368640  0.99574652     0.18500
C1537       C  0.15447970  0.60972422  0.29469588    -0.26800
C1538       C  0.14868951  0.62096643  0.27523951     0.06800
C1539       C  0.13627086  0.63922828  0.27780216     0.26500
C1540       C  0.13079047  0.64661519  0.29931896    -0.11300
C1541       C  0.13750186  0.63603536  0.31884689    -0.25200
C1542       C  0.14902133  0.61715277  0.31628088     0.37300
C1543       C  0.15718683  0.61471593  0.25267262     0.06900
F1544       F  0.13047311  0.65071513  0.25959727    -0.19000
H1545       H  0.12176568  0.66108923  0.30066987     0.16700
F1546       F  0.15574045  0.60628624  0.33455288    -0.22700
H1547       H  0.16374170  0.59542682  0.29319509     0.18500
C1548       C  0.17886501  0.61080438  0.24999134     0.26500
C1549       C  0.18716001  0.60572849  0.22883292    -0.11200
C1550       C  0.17421274  0.60462386  0.20962137    -0.25300
C1551       C  0.15251289  0.60880190  0.21212089     0.37400
C1552       C  0.14410843  0.61365751  0.23349094    -0.26900
F1553       F  0.19228122  0.61265679  0.26771889    -0.19000
H1554       H  0.20394661  0.60292425  0.22749229     0.16700
F1555       F  0.13941614  0.60815593  0.19404408    -0.22700
H1556       H  0.12735844  0.61658849  0.23505536     0.18500
C1557       C  0.31879234  0.94062793  0.39535106    -0.26800
C1558       C  0.30064053  0.94984244  0.40479188     0.06800
C1559       C  0.28352002  0.93665824  0.41044203     0.26500
C1560       C  0.28478874  0.91471214  0.40698849    -0.11300
C1561       C  0.30318462  0.90549382  0.39804590    -0.25200
C1562       C  0.32018147  0.91875246  0.39216623     0.37300
C1563       C  0.29988434  0.97319578  0.40820388     0.06900
F1564       F  0.26581993  0.94485495  0.41992649    -0.19000
H1565       H  0.27154724  0.90490589  0.41174770     0.16700
F1566       F  0.33817428  0.91068650  0.38318679    -0.22700
H1567       H  0.33195671  0.95042310  0.39028750     0.18500
C1568       C  0.31722532  0.98405298  0.41760288     0.26500
C1569       C  0.31776848  0.00615195  0.41795695    -0.11200
C1570       C  0.30097717  0.01798076  0.40918959    -0.25300
C1571       C  0.28296896  0.00717042  0.40121059     0.37400
C1572       C  0.28253378  0.98497510  0.40060227    -0.26900
F1573       F  0.33386796  0.97329256  0.42615651    -0.19000
H1574       H  0.33161529  0.01399956  0.42465629     0.16700
F1575       F  0.26616265  0.01794419  0.39307160    -0.22700
H1576       H  0.26902519  0.97704945  0.39328326     0.18500
C1577       C  0.34839342  0.83989907  0.49499396    -0.26800
C1578       C  0.33672600  0.82614909  0.50884509     0.06800
C1579       C  0.32289480  0.81152466  0.49858355     0.26500
C1580       C  0.31981496  0.81167565  0.47516965    -0.11300
C1581       C  0.33076113  0.82607457  0.46142086    -0.25200
C1582       C  0.34564110  0.83973267  0.47149549     0.37300
C1583       C  0.33669198  0.82923940  0.53382265     0.06900
F1584       F  0.31113801  0.79816995  0.51131741    -0.19000
H1585       H  0.30827092  0.80103453  0.46785854     0.16700
F1586       F  0.35628673  0.85409198  0.45889982    -0.22700
H1587       H  0.35901601  0.85134082  0.50248579     0.18500
C1588       C  0.34057694  0.81252998  0.54887293     0.26500
C1589       C  0.33821720  0.81561088  0.57228559    -0.11200
C1590       C  0.33154094  0.83526685  0.58101374    -0.25300
C1591       C  0.32843783  0.85209905  0.56592798     0.37400
C1592       C  0.33114101  0.84911011  0.54271320    -0.26900
F1593       F  0.34637166  0.79319366  0.54093690    -0.19000
H1594       H  0.34071643  0.80242663  0.58346120     0.16700
F1595       F  0.32242200  0.87147609  0.57356968    -0.22700
H1596       H  0.32804582  0.86219653  0.53153276     0.18500
C1597       C  0.21006087  0.72660042  0.37699686    -0.26800
C1598       C  0.20536387  0.74754059  0.38333054     0.06800
C1599       C  0.18438657  0.75280218  0.38871850     0.26500
C1600       C  0.16860280  0.73725385  0.38820230    -0.11300
C1601       C  0.17347639  0.71619586  0.38248865    -0.25200
C1602       C  0.19438241  0.71103770  0.37673932     0.37300
C1603       C  0.22256731  0.76350895  0.38478693     0.06900
F1604       F  0.17924066  0.77277631  0.39523531    -0.19000
H1605       H  0.15267332  0.74159247  0.39275456     0.16700
F1606       F  0.19970796  0.69100421  0.37059913    -0.22700
H1607       H  0.22594032  0.72225743  0.37224175     0.18500
C1608       C  0.24158294  0.75864872  0.39577161     0.26500
C1609       C  0.25788783  0.77348520  0.39679650    -0.11200
C1610       C  0.25561609  0.79357063  0.38712556    -0.25300
C1611       C  0.23657519  0.79857009  0.37624425     0.37400
C1612       C  0.22024711  0.78359935  0.37503764    -0.26900
F1613       F  0.24430785  0.73967406  0.40595275    -0.19000
H1614       H  0.27230620  0.76927084  0.40542226     0.16700
F1615       F  0.23390828  0.81764327  0.36627265    -0.22700
H1616       H  0.20592395  0.78758386  0.36616526     0.18500
C1617       C  0.48847036  0.76958970  0.15742620    -0.26800
C1618       C  0.49816652  0.75136612  0.14864275     0.06800
C1619       C  0.48551921  0.73411235  0.14199961     0.26500
C1620       C  0.46348554  0.73544562  0.14344328    -0.11300
C1621       C  0.45371037  0.75396821  0.15162024    -0.25200
C1622       C  0.46651687  0.77092271  0.15899029     0.37300
C1623       C  0.52139694  0.75100205  0.14572851     0.06900
F1624       F  0.49441584  0.71635078  0.13321827    -0.19000
H1625       H  0.45408096  0.72218795  0.13762420     0.16700
F1626       F  0.45790359  0.78895632  0.16745132    -0.22700
H1627       H  0.49797250  0.78293409  0.16289847     0.18500
C1628       C  0.53146008  0.76680590  0.13308078     0.26500
C1629       C  0.55341690  0.76728207  0.13131466    -0.11200
C1630       C  0.56586952  0.75202283  0.14208478    -0.25300
C1631       C  0.55577168  0.73588641  0.15438778     0.37400
C1632       C  0.53369661  0.73540505  0.15612180    -0.26900
F1633       F  0.52000183  0.78175718  0.12229511    -0.19000
H1634       H  0.56069677  0.77973068  0.12152250     0.16700
F1635       F  0.56717100  0.72099783  0.16532420    -0.22700
H1636       H  0.52622277  0.72318818  0.16603971     0.18500
C1637       C  0.35767626  0.77794320  0.99734439    -0.26800
C1638       C  0.37031655  0.79356786  0.00759048     0.06800
C1639       C  0.38260102  0.80680137  0.99373191     0.26500
C1640       C  0.38310101  0.80359250  0.97027862    -0.11300
C1641       C  0.37166263  0.78690211  0.96025015    -0.25200
C1642       C  0.35840948  0.77451640  0.97400153     0.37300
C1643       C  0.37279263  0.79380674  0.03260393     0.06900
F1644       F  0.39475958  0.82231082  0.00297418    -0.19000
H1645       H  0.39339631  0.81336184  0.96015908     0.16700
F1646       F  0.34680646  0.75843609  0.96504481    -0.22700
H1647       H  0.34820862  0.76745417  0.00757967     0.18500
C1648       C  0.35525341  0.79363180  0.04721691     0.26500
C1649       C  0.35799329  0.79047115  0.07046016    -0.11200
C1650       C  0.37821243  0.78714583  0.07951464    -0.25300
C1651       C  0.39577475  0.78843026  0.06500825     0.37400
C1652       C  0.39303745  0.79176030  0.04190474    -0.26900
F1653       F  0.33544918  0.79599971  0.03895688    -0.19000
H1654       H  0.34420697  0.78959361  0.08118810     0.16700
F1655       F  0.41564211  0.78579089  0.07299008    -0.22700
H1656       H  0.40678878  0.79164677  0.03106101     0.18500
C1657       C  0.27636251  0.66445266  0.15268668    -0.26800
C1658       C  0.29580310  0.65789056  0.14382431     0.06800
C1659       C  0.29822800  0.63673716  0.13676641     0.26500
C1660       C  0.28112147  0.62263495  0.13790480    -0.11300
C1661       C  0.26139864  0.62948962  0.14600106    -0.25200
C1662       C  0.25931483  0.65051200  0.15372165     0.37300
C1663       C  0.31297040  0.67366348  0.14145795     0.06900
F1664       F  0.31680378  0.62997352  0.12793919    -0.19000
H1665       H  0.28313326  0.60655835  0.13189154     0.16700
F1666       F  0.24079201  0.65770663  0.16229160    -0.22700
H1667       H  0.27432004  0.68056812  0.15861993     0.18500
C1668       C  0.30910812  0.69275301  0.13020165     0.26500
C1669       C  0.32427548  0.70877319  0.13010368    -0.11200
C1670       C  0.34363248  0.70613745  0.14119176    -0.25300
C1671       C  0.34787389  0.68670862  0.15176151     0.37400
C1672       C  0.33262236  0.67057728  0.15181171    -0.26900
F1673       F  0.29044837  0.69603895  0.11959435    -0.19000
H1674       H  0.32066319  0.72348278  0.12167621     0.16700
F1675       F  0.36621420  0.68370582  0.16306102    -0.22700
H1676       H  0.33579033  0.65605391  0.16073946     0.18500
C1677       C  0.35949173  0.81483232  0.24118168    -0.26800
C1678       C  0.35398820  0.80024799  0.25803614     0.06800
C1679       C  0.35398445  0.77852680  0.25253429     0.26500
C1680       C  0.36000777  0.77162292  0.23098060    -0.11300
C1681       C  0.36588805  0.78614897  0.21420830    -0.25200
C1682       C  0.36539154  0.80791967  0.21951502     0.37300
C1683       C  0.34801204  0.80772776  0.28113652     0.06900
F1684       F  0.34761994  0.76394685  0.26782203    -0.19000
H1685       H  0.35988765  0.75478747  0.22736539     0.16700
F1686       F  0.37098499  0.82253706  0.20395096    -0.22700
H1687       H  0.35953891  0.83164445  0.24491854     0.18500
C1688       C  0.35700238  0.79872920  0.30054924     0.26500
C1689       C  0.35055737  0.80524526  0.32213775    -0.11200
C1690       C  0.33511281  0.82096149  0.32495061    -0.25300
C1691       C  0.32657752  0.83041633  0.30548860     0.37400
C1692       C  0.33302162  0.82386972  0.28392143    -0.26900
F1693       F  0.37226800  0.78380570  0.29867564    -0.19000
H1694       H  0.35755043  0.79777892  0.33671400     0.16700
F1695       F  0.31175948  0.84581755  0.30717771    -0.22700
H1696       H  0.32590620  0.83112932  0.26930932     0.18500
loop_ 
_geom_bond_atom_site_label_1 
_geom_bond_atom_site_label_2 
_geom_bond_distance 
_geom_bond_site_symmetry_2 
_ccdc_geom_bond_type 
O1            C4   1.268       .  A
O1           Cd6   2.476       .  S
C2           O11   1.264       .  A
C2            O7   1.267       .  A
C2         C1670   1.479       .  S
O3            C9   1.269       .  A
O3           Cd6   2.519       .  S
C4           O12   1.268       .  A
C4         C1621   1.485       .  S
C5           O10   1.268       .  A
C5            O8   1.263       .  A
C5         C1650   1.489       .  S
Cd6          O13   2.467       .  S
Cd6          O12   2.456       .  S
Cd6          O11   2.437       .  S
Cd6           O7   2.486       .  S
Cd6          O10   2.525       .  S
Cd6           O8   2.467       .  S
C9           O13   1.264       .  A
C9         C1681   1.492       .  S
O14          C17   1.269       .  A
O14         Cd19   2.483       .  S
C15          O24   1.265       .  A
C15          O20   1.268       .  A
C15        C1561   1.483       .  S
O16          C22   1.270       .  A
O16         Cd19   2.528       .  S
C17          O25   1.266       .  A
C17        C1610   1.479       .  S
C18          O23   1.270       .  A
C18          O21   1.263       .  A
C18        C1690   1.493       .  S
Cd19         O26   2.462       .  S
Cd19         O25   2.424       .  S
Cd19         O24   2.450       .  S
Cd19         O20   2.483       .  S
Cd19         O23   2.519       .  S
Cd19         O21   2.462       .  S
C22          O26   1.263       .  A
C22        C1581   1.488       .  S
O27          C30   1.269       .  A
O27         Cd32   2.460       .  S
C28          O37   1.264       .  A
C28          O33   1.267       .  A
C28        C1661   1.481       .  S
O29          C35   1.267       .  A
O29         Cd32   2.511       .  S
C30          O38   1.268       .  A
C30        C1501   1.481       .  S
C31          O36   1.270       .  A
C31          O34   1.263       .  A
C31        C1550   1.489       .  S
Cd32         O39   2.459       .  S
Cd32         O38   2.447       .  S
Cd32         O37   2.439       .  S
Cd32         O33   2.496       .  S
Cd32         O36   2.530       .  S
Cd32         O34   2.434       .  S
C35          O39   1.262       .  A
C35        C1521   1.485       .  S
O40          C43   1.269       .  A
O40         Cd45   2.475       .  S
C41          O50   1.266       .  A
C41          O46   1.268       .  A
C41        C1601   1.478       .  S
O42          C48   1.273       .  A
O42         Cd45   2.532       .  S
C43          O51   1.267       .  A
C43        C1470   1.479       .  S
C44          O49   1.273       .  A
C44          O47   1.265       .  A
C44        C1541   1.490       .  S
Cd45         O52   2.412       .  S
Cd45         O51   2.414       .  S
Cd45         O50   2.439       .  S
Cd45         O46   2.468       .  S
Cd45         O49   2.515       .  S
Cd45         O47   2.435       .  S
C48          O52   1.263       .  A
C48        C1481   1.489       .  S
O53          C56   1.265       .  A
O53         Cd58   2.484       .  S
C54          O63   1.267       .  A
C54          O59   1.268       .  A
C54        C1430   1.477       .  S
O55          C61   1.262       .  A
O55         Cd58   2.462       .  S
C56          O64   1.263       .  A
C56        C1401   1.483       .  S
C57          O62   1.270       .  A
C57          O60   1.264       .  A
C57        C1441   1.490       .  S
Cd58         O65   2.533       .  S
Cd58         O64   2.468       .  S
Cd58         O63   2.448       .  S
Cd58         O59   2.481       .  S
Cd58         O62   2.515       .  S
Cd58         O60   2.460       .  S
C61          O65   1.268       .  A
C61        C1641   1.489       .  S
O66          C69   1.269       .  A
O66         Cd71   2.463       .  S
C67          O76   1.264       .  A
C67          O72   1.267       .  A
C67        C1381   1.477       .  S
O68          C74   1.270       .  A
O68         Cd71   2.545       .  S
C69          O77   1.268       .  A
C69        C1361   1.476       .  S
C70          O75   1.272       .  A
C70          O73   1.263       .  A
C70        C1450   1.490       .  S
Cd71         O78   2.450       .  S
Cd71         O77   2.427       .  S
Cd71         O76   2.433       .  S
Cd71         O72   2.474       .  S
Cd71         O75   2.512       .  S
Cd71         O73   2.453       .  S
C74          O78   1.263       .  A
C74        C1590   1.490       .  S
O79          C82   1.270       .  A
O79         Cd84   2.490       .  S
C80          O89   1.265       .  A
C80          O85   1.268       .  A
C80        C1321   1.485       .  S
O81          C87   1.269       .  A
O81         Cd84   2.529       .  S
C82          O90   1.265       .  A
C82        C1421   1.483       .  S
C83          O88   1.269       .  A
C83          O86   1.265       .  A
C83        C1350   1.482       .  S
Cd84         O91   2.429       .  S
Cd84         O90   2.432       .  S
Cd84         O89   2.457       .  S
Cd84         O85   2.484       .  S
Cd84         O88   2.494       .  S
Cd84         O86   2.446       .  S
C87          O91   1.262       .  A
C87        C1530   1.484       .  S
O92          C95   1.269       .  A
O92         Cd97   2.471       .  S
C93         O102   1.266       .  A
C93          O98   1.269       .  A
C93        C1390   1.478       .  S
O94         C100   1.272       .  A
O94         Cd97   2.513       .  S
C95         O103   1.266       .  A
C95        C1301   1.477       .  S
C96         O101   1.272       .  A
C96          O99   1.263       .  A
C96        C1490   1.484       .  S
Cd97        O104   2.439       .  S
Cd97        O103   2.430       .  S
Cd97        O102   2.432       .  S
Cd97         O98   2.470       .  S
Cd97        O101   2.529       .  S
Cd97         O99   2.412       .  S
C100        O104   1.263       .  A
C100       C1341   1.486       .  S
O105        C108   1.268       .  A
O105       Cd110   2.490       .  S
C106        O115   1.268       .  A
C106        O111   1.269       .  A
C106       C1261   1.484       .  S
O107        C113   1.271       .  A
O107       Cd110   2.515       .  S
C108        O116   1.264       .  A
C108       C1221   1.480       .  S
C109        O114   1.270       .  A
C109        O112   1.262       .  A
C109       C1241   1.483       .  S
Cd110       O117   2.438       .  S
Cd110       O116   2.429       .  S
Cd110       O115   2.442       .  S
Cd110       O111   2.476       .  S
Cd110       O114   2.533       .  S
Cd110       O112   2.430       .  S
C113        O117   1.264       .  A
C113       C1281   1.485       .  S
O118        C121   1.268       .  A
O118       Cd123   2.477       .  S
C119        O128   1.266       .  A
C119        O124   1.269       .  A
C119       C1210   1.477       .  S
O120        C126   1.271       .  A
O120       Cd123   2.509       .  S
C121        O129   1.266       .  A
C121       C1461   1.475       .  S
C122        O127   1.270       .  A
C122        O125   1.262       .  A
C122       C1190   1.487       .  S
Cd123       O130   2.436       .  S
Cd123       O129   2.433       .  S
Cd123       O128   2.427       .  S
Cd123       O124   2.469       .  S
Cd123       O127   2.532       .  S
Cd123       O125   2.440       .  S
C126        O130   1.262       .  A
C126       C1290   1.480       .  S
O131        C134   1.268       .  A
O131       Cd136   2.496       .  S
C132        O141   1.266       .  A
C132        O137   1.268       .  A
C132       C1270   1.477       .  S
O133        C139   1.272       .  A
O133       Cd136   2.537       .  S
C134        O142   1.265       .  A
C134       C1630   1.484       .  S
C135        O140   1.271       .  A
C135        O138   1.265       .  A
C135       C1161   1.491       .  S
Cd136       O143   2.417       .  S
Cd136       O142   2.448       .  S
Cd136       O141   2.452       .  S
Cd136       O137   2.474       .  S
Cd136       O140   2.517       .  S
Cd136       O138   2.448       .  S
C139        O143   1.263       .  A
C139       C1141   1.488       .  S
O144        C147   1.268       .  A
O144       Cd149   2.470       .  S
C145        O154   1.266       .  A
C145        O150   1.270       .  A
C145       C1201   1.477       .  S
O146        C152   1.263       .  A
O146       Cd149   2.446       .  S
C147        O155   1.265       .  A
C147       C1101   1.477       .  S
C148        O153   1.272       .  A
C148        O151   1.266       .  A
C148       C1170   1.490       .  S
Cd149       O156   2.514       .  S
Cd149       O155   2.433       .  S
Cd149       O154   2.417       .  S
Cd149       O150   2.471       .  S
Cd149       O153   2.498       .  S
Cd149       O151   2.455       .  S
C152        O156   1.270       .  A
C152       C1121   1.484       .  S
O157        C160   1.264       .  A
O157       Cd162   2.422       .  S
C158        O167   1.265       .  A
C158        O163   1.269       .  A
C158       C1410   1.484       .  S
O159        C165   1.261       .  A
O159       Cd162   2.471       .  S
C160        O168   1.270       .  A
C160       C1070   1.482       .  S
C161        O166   1.270       .  A
C161        O164   1.264       .  A
C161       C1081   1.482       .  S
Cd162       O169   2.526       .  S
Cd162       O168   2.490       .  S
Cd162       O167   2.437       .  S
Cd162       O163   2.498       .  S
Cd162       O166   2.502       .  S
Cd162       O164   2.451       .  S
C165        O169   1.266       .  A
C165       C1150   1.486       .  S
O170        C173   1.266       .  A
O170       Cd175   2.509       .  S
C171        O180   1.268       .  A
C171        O176   1.269       .  A
C171       C1021   1.481       .  S
O172        C178   1.267       .  A
O172       Cd175   2.520       .  S
C173        O181   1.263       .  A
C173       C1041   1.481       .  S
C174        O179   1.270       .  A
C174        O177   1.263       .  A
C174       C1090   1.483       .  S
Cd175       O182   2.459       .  S
Cd175       O181   2.434       .  S
Cd175       O180   2.455       .  S
Cd175       O176   2.457       .  S
Cd175       O179   2.517       .  S
Cd175       O177   2.432       .  S
C178        O182   1.263       .  A
C178       C1130   1.487       .  S
O183        C186   1.269       .  A
O183       Cd188   2.462       .  S
C184        O193   1.263       .  A
C184        O189   1.267       .  A
C184       C1061   1.478       .  S
O185        C191   1.270       .  A
O185       Cd188   2.513       .  S
C186        O194   1.268       .  A
C186        C981   1.481       .  S
C187        O192   1.270       .  A
C187        O190   1.262       .  A
C187       C1001   1.488       .  S
Cd188       O195   2.433       .  S
Cd188       O194   2.436       .  S
Cd188       O193   2.434       .  S
Cd188       O189   2.492       .  S
Cd188       O192   2.517       .  S
Cd188       O190   2.441       .  S
C191        O195   1.263       .  A
C191       C1250   1.483       .  S
O196        C199   1.268       .  A
O196       Cd201   2.476       .  S
C197        O206   1.264       .  A
C197        O202   1.268       .  A
C197       C1050   1.481       .  S
O198        C204   1.270       .  A
O198       Cd201   2.527       .  S
C199        O207   1.267       .  A
C199       C1310   1.481       .  S
C200        O205   1.271       .  A
C200        O203   1.263       .  A
C200       C1010   1.488       .  S
Cd201       O208   2.440       .  S
Cd201       O207   2.455       .  S
Cd201       O206   2.430       .  S
Cd201       O202   2.487       .  S
Cd201       O205   2.500       .  S
Cd201       O203   2.454       .  S
C204        O208   1.264       .  A
C204       C1181   1.488       .  S
O209        C212   1.266       .  A
O209       Cd214   2.493       .  S
C210        O219   1.268       .  A
C210        O215   1.269       .  A
C210        C941   1.482       .  S
O211        C217   1.263       .  A
O211       Cd214   2.453       .  S
C212        O220   1.264       .  A
C212       C1570   1.483       .  S
C213        O218   1.270       .  A
C213        O216   1.263       .  A
C213        C970   1.494       .  S
Cd214       O221   2.529       .  S
Cd214       O220   2.453       .  S
Cd214       O219   2.441       .  S
Cd214       O215   2.463       .  S
Cd214       O218   2.533       .  S
Cd214       O216   2.473       .  S
C217        O221   1.270       .  A
C217        C921   1.488       .  S
O222        C225   1.266       .  A
O222       Cd227   2.492       .  S
C223        O232   1.265       .  A
C223        O228   1.268       .  A
C223        C910   1.481       .  S
O224        C230   1.263       .  A
O224       Cd227   2.483       .  S
C225        O233   1.265       .  A
C225        C861   1.483       .  S
C226        O231   1.269       .  A
C226        O229   1.265       .  A
C226        C961   1.494       .  S
Cd227       O234   2.504       .  S
Cd227       O233   2.447       .  S
Cd227       O232   2.428       .  S
Cd227       O228   2.490       .  S
Cd227       O231   2.514       .  S
Cd227       O229   2.466       .  S
C230        O234   1.265       .  A
C230        C881   1.488       .  S
O235        C238   1.266       .  A
O235       Cd240   2.498       .  S
C236        O245   1.268       .  A
C236        O241   1.269       .  A
C236        C810   1.478       .  S
O237        C243   1.268       .  A
O237       Cd240   2.501       .  S
C238        O246   1.262       .  A
C238        C950   1.476       .  S
C239        O244   1.269       .  A
C239        O242   1.263       .  A
C239        C841   1.479       .  S
Cd240       O247   2.452       .  S
Cd240       O246   2.416       .  S
Cd240       O245   2.432       .  S
Cd240       O241   2.457       .  S
Cd240       O244   2.504       .  S
Cd240       O242   2.438       .  S
C243        O247   1.264       .  A
C243        C830   1.480       .  S
O248        C251   1.269       .  A
O248       Cd253   2.469       .  S
C249        O258   1.263       .  A
C249        O254   1.266       .  A
C249        C901   1.482       .  S
O250        C256   1.268       .  A
O250       Cd253   2.504       .  S
C251        O259   1.267       .  A
C251       C1510   1.476       .  S
C252        O257   1.269       .  A
C252        O255   1.262       .  A
C252        C781   1.485       .  S
Cd253       O260   2.464       .  S
Cd253       O259   2.438       .  S
Cd253       O258   2.442       .  S
Cd253       O254   2.494       .  S
Cd253       O257   2.522       .  S
Cd253       O255   2.435       .  S
C256        O260   1.264       .  A
C256        C850   1.484       .  S
O261        C264   1.267       .  A
O261       Cd266   2.487       .  S
C262        O271   1.267       .  A
C262        O267   1.268       .  A
C262        C721   1.480       .  S
O263        C269   1.269       .  A
O263       Cd266   2.528       .  S
C264        O272   1.264       .  A
C264        C750   1.482       .  S
C265        O270   1.271       .  A
C265        O268   1.263       .  A
C265        C761   1.486       .  S
Cd266       O273   2.439       .  S
Cd266       O272   2.452       .  S
Cd266       O271   2.453       .  S
Cd266       O267   2.474       .  S
Cd266       O270   2.512       .  S
Cd266       O268   2.422       .  S
C269        O273   1.263       .  A
C269        C890   1.486       .  S
O274        C277   1.266       .  A
O274       Cd279   2.474       .  S
C275        O284   1.268       .  A
C275        O280   1.268       .  A
C275       C1370   1.479       .  S
O276        C282   1.269       .  A
O276       Cd279   2.512       .  S
C277        O285   1.265       .  A
C277        C710   1.477       .  S
C278        O283   1.270       .  A
C278        O281   1.262       .  A
C278        C770   1.485       .  S
Cd279       O286   2.443       .  S
Cd279       O285   2.449       .  S
Cd279       O284   2.434       .  S
Cd279       O280   2.456       .  S
Cd279       O283   2.520       .  S
Cd279       O281   2.425       .  S
C282        O286   1.263       .  A
C282        C930   1.482       .  S
O287        C290   1.267       .  A
O287       Cd292   2.495       .  S
C288        O297   1.267       .  A
C288        O293   1.269       .  A
C288        C741   1.477       .  S
O289        C295   1.262       .  A
O289       Cd292   2.450       .  S
C290        O298   1.265       .  A
C290       C1330   1.484       .  S
C291        O296   1.271       .  A
C291        O294   1.262       .  A
C291        C690   1.491       .  S
Cd292       O299   2.513       .  S
Cd292       O298   2.448       .  S
Cd292       O297   2.434       .  S
Cd292       O293   2.450       .  S
Cd292       O296   2.529       .  S
Cd292       O294   2.431       .  S
C295        O299   1.269       .  A
C295        C790   1.482       .  S
O300        C303   1.267       .  A
O300       Cd305   2.499       .  S
C301        O310   1.269       .  A
C301        O306   1.270       .  A
C301        C701   1.482       .  S
O302        C308   1.270       .  A
O302       Cd305   2.525       .  S
C303        O311   1.264       .  A
C303        C661   1.482       .  S
C304        O309   1.271       .  A
C304        O307   1.262       .  A
C304        C681   1.490       .  S
Cd305       O312   2.454       .  S
Cd305       O311   2.443       .  S
Cd305       O310   2.448       .  S
Cd305       O306   2.453       .  S
Cd305       O309   2.536       .  S
Cd305       O307   2.446       .  S
C308        O312   1.263       .  A
C308        C821   1.487       .  S
O313        C316   1.266       .  A
O313       Cd318   2.476       .  S
C314        O323   1.267       .  A
C314        O319   1.269       .  A
C314        C621   1.483       .  S
O315        C321   1.268       .  A
O315       Cd318   2.508       .  S
C316        O324   1.264       .  A
C316       C1230   1.478       .  S
C317        O322   1.269       .  A
C317        O320   1.262       .  A
C317        C641   1.485       .  S
Cd318       O325   2.475       .  S
Cd318       O324   2.446       .  S
Cd318       O323   2.432       .  S
Cd318       O319   2.480       .  S
Cd318       O322   2.517       .  S
Cd318       O320   2.450       .  S
C321        O325   1.264       .  A
C321        C601   1.487       .  S
O326        C329   1.267       .  A
O326       Cd331   2.482       .  S
C327        O336   1.267       .  A
C327        O332   1.268       .  A
C327        C581   1.473       .  S
O328        C334   1.269       .  A
O328       Cd331   2.509       .  S
C329        O337   1.264       .  A
C329        C801   1.478       .  S
C330        O335   1.270       .  A
C330        O333   1.264       .  A
C330        C650   1.487       .  S
Cd331       O338   2.440       .  S
Cd331       O337   2.422       .  S
Cd331       O336   2.434       .  S
Cd331       O332   2.453       .  S
Cd331       O335   2.508       .  S
Cd331       O333   2.431       .  S
C334        O338   1.262       .  A
C334        C570   1.483       .  S
O339        C342   1.267       .  A
O339       Cd344   2.472       .  S
C340        O349   1.264       .  A
C340        O345   1.266       .  A
C340        C630   1.483       .  S
O341        C347   1.271       .  A
O341       Cd344   2.547       .  S
C342        O350   1.266       .  A
C342        C870   1.476       .  S
C343        O348   1.269       .  A
C343        O346   1.262       .  A
C343        C521   1.492       .  S
Cd344       O351   2.434       .  S
Cd344       O350   2.440       .  S
Cd344       O349   2.445       .  S
Cd344       O345   2.495       .  S
Cd344       O348   2.531       .  S
Cd344       O346   2.453       .  S
C347        O351   1.262       .  A
C347        C541   1.494       .  S
O352        C355   1.268       .  A
O352       Cd357   2.486       .  S
C353        O362   1.265       .  A
C353        O358   1.266       .  A
C353       C1110   1.478       .  S
O354        C360   1.270       .  A
O354       Cd357   2.520       .  S
C355        O363   1.266       .  A
C355        C590   1.483       .  S
C356        O361   1.270       .  A
C356        O359   1.263       .  A
C356        C550   1.493       .  S
Cd357       O364   2.450       .  S
Cd357       O363   2.440       .  S
Cd357       O362   2.455       .  S
Cd357       O358   2.473       .  S
Cd357       O361   2.533       .  S
Cd357       O359   2.457       .  S
C360        O364   1.265       .  A
C360        C510   1.488       .  S
O365        C368   1.268       .  A
O365       Cd370   2.468       .  S
C366        O375   1.264       .  A
C366        O371   1.266       .  A
C366        C461   1.478       .  S
O367        C373   1.270       .  A
O367       Cd370   2.510       .  S
C368        O376   1.267       .  A
C368        C990   1.477       .  S
C369        O374   1.268       .  A
C369        O372   1.263       .  A
C369        C610   1.485       .  S
Cd370       O377   2.430       .  S
Cd370       O376   2.438       .  S
Cd370       O375   2.451       .  S
Cd370       O371   2.472       .  S
Cd370       O374   2.515       .  S
Cd370       O372   2.441       .  S
C373        O377   1.263       .  A
C373        C481   1.485       .  S
O378        C381   1.267       .  A
O378       Cd383   2.484       .  S
C379        O388   1.267       .  A
C379        O384   1.269       .  A
C379        C670   1.480       .  S
O380        C386   1.268       .  A
O380       Cd383   2.507       .  S
C381        O389   1.264       .  A
C381        C441   1.479       .  S
C382        O387   1.270       .  A
C382        O385   1.263       .  A
C382        C490   1.487       .  S
Cd383       O390   2.457       .  S
Cd383       O389   2.434       .  S
Cd383       O388   2.427       .  S
Cd383       O384   2.474       .  S
Cd383       O387   2.519       .  S
Cd383       O385   2.429       .  S
C386        O390   1.264       .  A
C386        C561   1.486       .  S
O391        C394   1.270       .  A
O391       Cd396   2.485       .  S
C392        O401   1.263       .  A
C392        O397   1.269       .  A
C392        C730   1.485       .  S
O393        C399   1.269       .  A
O393       Cd396   2.499       .  S
C394        O402   1.267       .  A
C394        C470   1.486       .  S
C395        O400   1.268       .  A
C395        O398   1.264       .  A
C395        C530   1.483       .  S
Cd396       O403   2.445       .  S
Cd396       O402   2.451       .  S
Cd396       O401   2.430       .  S
Cd396       O397   2.506       .  S
Cd396       O400   2.507       .  S
Cd396       O398   2.462       .  S
C399        O403   1.264       .  A
C399        C430   1.486       .  S
O404        C407   1.270       .  A
O404       Cd409   2.476       .  S
C405        O414   1.264       .  A
C405        O410   1.268       .  A
C405        C450   1.485       .  S
O406        C412   1.267       .  A
O406       Cd409   2.523       .  S
C407        O415   1.267       .  A
C407       C1030   1.483       .  S
C408        O413   1.270       .  A
C408        O411   1.263       .  A
C408        C421   1.486       .  S
Cd409       O416   2.477       .  S
Cd409       O415   2.435       .  S
Cd409       O414   2.439       .  S
Cd409       O410   2.508       .  S
Cd409       O413   2.503       .  S
Cd409       O411   2.450       .  S
C412        O416   1.262       .  A
C412        C501   1.491       .  S
C417        C418   1.404       .  A
C417        C422   1.398       .  A
C417        H427   1.083       .  S
C418        C423   1.488       .  S
C418        C419   1.408       .  A
C419        C420   1.402       .  A
C419        F424   1.357       .  S
C420        C421   1.405       .  A
C420        H425   1.083       .  S
C421        C422   1.411       .  A
C422        F426   1.358       .  S
C423        C428   1.408       .  A
C423        C432   1.403       .  A
C428        C429   1.402       .  A
C428        F433   1.357       .  S
C429        C430   1.406       .  A
C429        H434   1.083       .  S
C430        C431   1.411       .  A
C431        C432   1.398       .  A
C431        F435   1.357       .  S
C432        H436   1.083       .  S
C437        C438   1.404       .  A
C437        C442   1.395       .  A
C437        H447   1.080       .  S
C438        C443   1.486       .  S
C438        C439   1.408       .  A
C439        C440   1.402       .  A
C439        F444   1.357       .  S
C440        C441   1.406       .  A
C440        H445   1.080       .  S
C441        C442   1.407       .  A
C442        F446   1.358       .  S
C443        C448   1.406       .  A
C443        C452   1.406       .  A
C448        C449   1.395       .  A
C448        F453   1.358       .  S
C449        C450   1.406       .  A
C449        H454   1.082       .  S
C450        C451   1.409       .  A
C451        C452   1.404       .  A
C451        F455   1.357       .  S
C452        H456   1.080       .  S
C457        C458   1.407       .  A
C457        C462   1.397       .  A
C457        H467   1.081       .  S
C458        C463   1.490       .  S
C458        C459   1.409       .  A
C459        C460   1.400       .  A
C459        F464   1.357       .  S
C460        C461   1.405       .  A
C460        H465   1.082       .  S
C461        C462   1.406       .  A
C462        F466   1.358       .  S
C463        C468   1.408       .  A
C463        C472   1.406       .  A
C468        C469   1.398       .  A
C468        F473   1.358       .  S
C469        C470   1.406       .  A
C469        H474   1.083       .  S
C470        C471   1.409       .  A
C471        C472   1.401       .  A
C471        F475   1.357       .  S
C472        H476   1.080       .  S
C477        C478   1.407       .  A
C477        C482   1.403       .  A
C477        H487   1.082       .  S
C478        C483   1.484       .  S
C478        C479   1.404       .  A
C479        C480   1.397       .  A
C479        F484   1.358       .  S
C480        C481   1.408       .  A
C480        H485   1.082       .  S
C481        C482   1.408       .  A
C482        F486   1.357       .  S
C483        C488   1.408       .  A
C483        C492   1.401       .  A
C488        C489   1.404       .  A
C488        F493   1.357       .  S
C489        C490   1.406       .  A
C489        H494   1.084       .  S
C490        C491   1.412       .  A
C491        C492   1.397       .  A
C491        F495   1.357       .  S
C492        H496   1.084       .  S
C497        C498   1.407       .  A
C497        C502   1.403       .  A
C497        H507   1.081       .  S
C498        C503   1.492       .  S
C498        C499   1.407       .  A
C499        C500   1.403       .  A
C499        F504   1.357       .  S
C500        C501   1.409       .  A
C500        H505   1.081       .  S
C501        C502   1.409       .  A
C502        F506   1.357       .  S
C503        C508   1.410       .  A
C503        C512   1.404       .  A
C508        C509   1.407       .  A
C508        F513   1.357       .  S
C509        C510   1.408       .  A
C509        H514   1.081       .  S
C510        C511   1.408       .  A
C511        C512   1.399       .  A
C511        F515   1.358       .  S
C512        H516   1.082       .  S
C517        C518   1.403       .  A
C517        C522   1.400       .  A
C517        H527   1.082       .  S
C518        C523   1.490       .  S
C518        C519   1.408       .  A
C519        C520   1.406       .  A
C519        F524   1.357       .  S
C520        C521   1.408       .  A
C520        H525   1.080       .  S
C521        C522   1.412       .  A
C522        F526   1.357       .  S
C523        C528   1.409   1_554  A
C523        C532   1.405   1_554  A
C528        C529   1.404       .  A
C528        F533   1.357       .  S
C529        C530   1.406       .  A
C529        H534   1.083       .  S
C530        C531   1.407       .  A
C531        C532   1.400       .  A
C531        F535   1.357       .  S
C532        H536   1.083   1_556  S
C537        C538   1.401       .  A
C537        C542   1.397       .  A
C537        H547   1.086       .  S
C538        C543   1.494       .  S
C538        C539   1.412       .  A
C539        C540   1.408       .  A
C539        F544   1.357       .  S
C540        C541   1.408       .  A
C540        H545   1.086       .  S
C541        C542   1.412       .  A
C542        F546   1.357       .  S
C543        C548   1.406       .  A
C543        C552   1.409       .  A
C548        C549   1.401       .  A
C548        F553   1.357       .  S
C549        C550   1.409       .  A
C549        H554   1.082       .  S
C550        C551   1.409       .  A
C551        C552   1.405       .  A
C551        F555   1.357       .  S
C552        H556   1.082       .  S
C557        C558   1.403       .  A
C557        C562   1.399       .  A
C557        H567   1.084       .  S
C558        C563   1.483       .  S
C558        C559   1.405       .  A
C559        C560   1.403       .  A
C559        F564   1.357       .  S
C560        C561   1.407       .  A
C560        H565   1.082       .  S
C561        C562   1.410       .  A
C562        F566   1.358       .  S
C563        C568   1.406       .  A
C563        C572   1.403       .  A
C568        C569   1.402       .  A
C568        F573   1.357       .  S
C569        C570   1.406       .  A
C569        H574   1.082       .  S
C570        C571   1.410       .  A
C571        C572   1.399       .  A
C571        F575   1.358       .  S
C572        H576   1.083       .  S
C577        C578   1.405       .  A
C577        C582   1.399       .  A
C577        H587   1.081       .  S
C578        C583   1.481       .  S
C578        C579   1.407       .  A
C579        C580   1.396       .  A
C579        F584   1.358       .  S
C580        C581   1.403       .  A
C580        H585   1.082       .  S
C581        C582   1.407       .  A
C582        F586   1.358       .  S
C583        C588   1.406       .  A
C583        C592   1.402       .  A
C588        C589   1.402       .  A
C588        F593   1.358       .  S
C589        C590   1.408       .  A
C589        H594   1.081       .  S
C590        C591   1.409       .  A
C591        C592   1.395       .  A
C591        F595   1.357       .  S
C592        H596   1.082       .  S
C597        C598   1.407       .  A
C597        C602   1.403       .  A
C597        H607   1.079       .  S
C598        C603   1.492   1_554  S
C598        C599   1.408       .  A
C599        C600   1.401       .  A
C599        F604   1.358       .  S
C600        C601   1.406       .  A
C600        H605   1.082       .  S
C601        C602   1.408       .  A
C602        F606   1.357       .  S
C603        C608   1.407       .  A
C603        C612   1.408       .  A
C608        C609   1.397       .  A
C608        F613   1.357       .  S
C609        C610   1.405       .  A
C609        H614   1.082       .  S
C610        C611   1.408       .  A
C611        C612   1.405       .  A
C611        F615   1.357       .  S
C612        H616   1.079       .  S
C617        C618   1.406       .  A
C617        C622   1.404       .  A
C617        H627   1.080       .  S
C618        C623   1.485       .  S
C618        C619   1.406       .  A
C619        C620   1.394       .  A
C619        F624   1.358       .  S
C620        C621   1.404       .  A
C620        H625   1.081       .  S
C621        C622   1.410       .  A
C622        F626   1.357       .  S
C623        C628   1.407       .  A
C623        C632   1.404       .  A
C628        C629   1.404       .  A
C628        F633   1.357       .  S
C629        C630   1.408       .  A
C629        H634   1.079       .  S
C630        C631   1.408       .  A
C631        C632   1.395       .  A
C631        F635   1.357       .  S
C632        H636   1.081       .  S
C637        C638   1.405       .  A
C637        C642   1.399       .  A
C637        H647   1.084       .  S
C638        C643   1.493       .  S
C638        C639   1.411       .  A
C639        C640   1.402       .  A
C639        F644   1.357       .  S
C640        C641   1.404       .  A
C640        H645   1.084       .  S
C641        C642   1.410       .  A
C642        F646   1.358       .  S
C643        C648   1.411       .  A
C643        C652   1.404       .  A
C648        C649   1.403       .  A
C648        F653   1.357       .  S
C649        C650   1.406       .  A
C649        H654   1.083       .  S
C650        C651   1.410       .  A
C651        C652   1.397       .  A
C651        F655   1.357       .  S
C652        H656   1.083       .  S
C657        C658   1.403       .  A
C657        C662   1.395       .  A
C657        H667   1.083       .  S
C658        C663   1.483       .  S
C658        C659   1.406       .  A
C659        C660   1.404       .  A
C659        F664   1.357       .  S
C660        C661   1.407       .  A
C660        H665   1.081       .  S
C661        C662   1.408       .  A
C662        F666   1.358       .  S
C663        C668   1.406   1_455  A
C663        C672   1.405   1_455  A
C668        C669   1.394       .  A
C668        F673   1.358       .  S
C669        C670   1.404       .  A
C669        H674   1.082       .  S
C670        C671   1.409       .  A
C671        C672   1.403       .  A
C671        F675   1.357       .  S
C672        H676   1.081       .  S
C677        C678   1.403       .  A
C677        C682   1.400       .  A
C677        H687   1.084       .  S
C678        C683   1.493       .  S
C678        C679   1.411       .  A
C679        C680   1.405       .  A
C679        F684   1.357       .  S
C680        C681   1.405       .  A
C680        H685   1.084       .  S
C681        C682   1.412       .  A
C682        F686   1.357       .  S
C683        C688   1.411       .  A
C683        C692   1.403       .  A
C688        C689   1.406       .  A
C688        F693   1.357       .  S
C689        C690   1.406       .  A
C689        H694   1.083       .  S
C690        C691   1.412       .  A
C691        C692   1.398       .  A
C691        F695   1.357       .  S
C692        H696   1.084       .  S
C697        C698   1.403       .  A
C697        C702   1.399       .  A
C697        H707   1.082       .  S
C698        C703   1.480       .  S
C698        C699   1.405       .  A
C699        C700   1.398       .  A
C699        F704   1.358       .  S
C700        C701   1.406       .  A
C700        H705   1.082       .  S
C701        C702   1.409       .  A
C702        F706   1.357       .  S
C703        C708   1.406       .  A
C703        C712   1.403       .  A
C708        C709   1.400       .  A
C708        F713   1.358       .  S
C709        C710   1.406       .  A
C709        H714   1.082       .  S
C710        C711   1.407       .  A
C711        C712   1.396       .  A
C711        F715   1.357       .  S
C712        H716   1.083       .  S
C717        C718   1.404       .  A
C717        C722   1.401       .  A
C717        H727   1.081       .  S
C718        C723   1.482       .  S
C718        C719   1.406       .  A
C719        C720   1.398       .  A
C719        F724   1.358       .  S
C720        C721   1.405       .  A
C720        H725   1.083       .  S
C721        C722   1.408       .  A
C722        F726   1.357       .  S
C723        C728   1.406       .  A
C723        C732   1.402       .  A
C728        C729   1.403       .  A
C728        F733   1.357       .  S
C729        C730   1.407       .  A
C729        H734   1.081       .  S
C730        C731   1.410       .  A
C731        C732   1.396       .  A
C731        F735   1.358       .  S
C732        H736   1.083       .  S
C737        C738   1.404       .  A
C737        C742   1.399       .  A
C737        H747   1.079       .  S
C738        C743   1.480       .  S
C738        C739   1.406       .  A
C739        C740   1.396       .  A
C739        F744   1.358       .  S
C740        C741   1.405       .  A
C740        H745   1.080       .  S
C741        C742   1.408       .  A
C742        F746   1.357       .  S
C743        C748   1.406       .  A
C743        C752   1.403       .  A
C748        C749   1.401       .  A
C748        F753   1.358       .  S
C749        C750   1.407       .  A
C749        H754   1.080       .  S
C750        C751   1.408       .  A
C751        C752   1.396       .  A
C751        F755   1.357       .  S
C752        H756   1.081       .  S
C757        C758   1.401       .  A
C757        C762   1.397       .  A
C757        H767   1.084       .  S
C758        C763   1.484       .  S
C758        C759   1.408       .  A
C759        C760   1.402       .  A
C759        F764   1.357       .  S
C760        C761   1.406       .  A
C760        H765   1.084       .  S
C761        C762   1.412       .  A
C762        F766   1.357       .  S
C763        C768   1.403       .  A
C763        C772   1.407       .  A
C768        C769   1.396       .  A
C768        F773   1.358       .  S
C769        C770   1.407       .  A
C769        H774   1.083       .  S
C770        C771   1.408       .  A
C771        C772   1.404       .  A
C771        F775   1.357       .  S
C772        H776   1.083       .  S
C777        C778   1.406       .  A
C777        C782   1.405       .  A
C777        H787   1.081       .  S
C778        C783   1.484       .  S
C778        C779   1.404       .  A
C779        C780   1.396       .  A
C779        F784   1.358       .  S
C780        C781   1.407       .  A
C780        H785   1.081       .  S
C781        C782   1.409       .  A
C782        F786   1.357       .  S
C783        C788   1.405       .  A
C783        C792   1.406       .  A
C788        C789   1.399   1_554  A
C788        F793   1.358       .  S
C789        C790   1.406       .  A
C789        H794   1.082       .  S
C790        C791   1.407       .  A
C791        C792   1.402   1_556  A
C791        F795   1.357       .  S
C792        H796   1.083       .  S
C797        C798   1.407       .  A
C797        C802   1.400       .  A
C797        H807   1.081       .  S
C798        C803   1.485   1_655  S
C798        C799   1.407       .  A
C799        C800   1.393       .  A
C799        F804   1.358       .  S
C800        C801   1.404       .  A
C800        H805   1.081       .  S
C801        C802   1.408       .  A
C802        F806   1.357       .  S
C803        C808   1.408       .  A
C803        C812   1.405       .  A
C808        C809   1.399       .  A
C808        F813   1.357       .  S
C809        C810   1.406       .  A
C809        H814   1.081       .  S
C810        C811   1.407       .  A
C811        C812   1.394       .  A
C811        F815   1.358       .  S
C812        H816   1.082       .  S
C817        C818   1.404       .  A
C817        C822   1.399       .  A
C817        H827   1.084       .  S
C818        C823   1.491       .  S
C818        C819   1.409       .  A
C819        C820   1.405       .  A
C819        F824   1.357       .  S
C820        C821   1.406       .  A
C820        H825   1.083       .  S
C821        C822   1.410       .  A
C822        F826   1.357       .  S
C823        C828   1.409       .  A
C823        C832   1.406       .  A
C828        C829   1.403       .  A
C828        F833   1.357       .  S
C829        C830   1.404       .  A
C829        H834   1.082       .  S
C830        C831   1.407       .  A
C831        C832   1.400       .  A
C831        F835   1.358       .  S
C832        H836   1.083       .  S
C837        C838   1.407       .  A
C837        C842   1.399       .  A
C837        H847   1.083       .  S
C838        C843   1.498       .  S
C838        C839   1.414       .  A
C839        C840   1.402       .  A
C839        F844   1.357       .  S
C840        C841   1.402       .  A
C840        H845   1.085       .  S
C841        C842   1.406       .  A
C842        F846   1.358       .  S
C843        C848   1.413       .  A
C843        C852   1.407       .  A
C848        C849   1.402       .  A
C848        F853   1.357       .  S
C849        C850   1.403       .  A
C849        H854   1.084       .  S
C850        C851   1.407       .  A
C851        C852   1.400       .  A
C851        F855   1.357       .  S
C852        H856   1.083       .  S
C857        C858   1.407       .  A
C857        C862   1.403       .  A
C857        H867   1.082       .  S
C858        C863   1.489       .  S
C858        C859   1.408       .  A
C859        C860   1.394       .  A
C859        F864   1.358       .  S
C860        C861   1.404       .  A
C860        H865   1.082       .  S
C861        C862   1.409       .  A
C862        F866   1.357       .  S
C863        C868   1.409       .  A
C863        C872   1.406       .  A
C868        C869   1.401       .  A
C868        F873   1.357       .  S
C869        C870   1.405       .  A
C869        H874   1.082       .  S
C870        C871   1.405       .  A
C871        C872   1.395       .  A
C871        F875   1.358       .  S
C872        H876   1.084       .  S
C877        C878   1.404       .  A
C877        C882   1.402       .  A
C877        H887   1.083       .  S
C878        C883   1.486       .  S
C878        C879   1.406       .  A
C879        C880   1.402       .  A
C879        F884   1.357       .  S
C880        C881   1.407       .  A
C880        H885   1.083       .  S
C881        C882   1.410       .  A
C882        F886   1.357       .  S
C883        C888   1.408       .  A
C883        C892   1.403       .  A
C888        C889   1.406   1_554  A
C888        F893   1.357       .  S
C889        C890   1.407       .  A
C889        H894   1.083       .  S
C890        C891   1.408       .  A
C891        C892   1.397   1_556  A
C891        F895   1.358       .  S
C892        H896   1.083       .  S
C897        C898   1.402       .  A
C897        C902   1.394       .  A
C897        H907   1.083       .  S
C898        C903   1.478       .  S
C898        C899   1.404       .  A
C899        C900   1.402       .  A
C899        F904   1.357       .  S
C900        C901   1.408       .  A
C900        H905   1.082       .  S
C901        C902   1.409       .  A
C902        F906   1.358       .  S
C903        C908   1.403       .  A
C903        C912   1.404       .  A
C908        C909   1.393       .  A
C908        F913   1.358       .  S
C909        C910   1.405       .  A
C909        H914   1.083       .  S
C910        C911   1.410       .  A
C911        C912   1.403       .  A
C911        F915   1.357       .  S
C912        H916   1.082       .  S
C917        C918   1.404       .  A
C917        C922   1.400       .  A
C917        H927   1.082       .  S
C918        C923   1.489       .  S
C918        C919   1.408       .  A
C919        C920   1.405       .  A
C919        F924   1.357       .  S
C920        C921   1.406       .  A
C920        H925   1.083       .  S
C921        C922   1.410       .  A
C922        F926   1.358       .  S
C923        C928   1.409       .  A
C923        C932   1.404       .  A
C928        C929   1.404       .  A
C928        F933   1.357       .  S
C929        C930   1.405       .  A
C929        H934   1.082       .  S
C930        C931   1.408       .  A
C931        C932   1.399       .  A
C931        F935   1.358       .  S
C932        H936   1.083       .  S
C937        C938   1.406       .  A
C937        C942   1.400       .  A
C937        H947   1.079       .  S
C938        C943   1.489       .  S
C938        C939   1.410       .  A
C939        C940   1.396       .  A
C939        F944   1.358       .  S
C940        C941   1.404       .  A
C940        H945   1.082       .  S
C941        C942   1.408       .  A
C942        F946   1.357       .  S
C943        C948   1.412       .  A
C943        C952   1.404       .  A
C948        C949   1.402       .  A
C948        F953   1.357       .  S
C949        C950   1.404       .  A
C949        H954   1.080       .  S
C950        C951   1.406       .  A
C951        C952   1.393       .  A
C951        F955   1.358       .  S
C952        H956   1.080       .  S
C957        C958   1.407       .  A
C957        C962   1.401       .  A
C957        H967   1.084       .  S
C958        C963   1.503       .  S
C958        C959   1.413       .  A
C959        C960   1.405       .  A
C959        F964   1.357       .  S
C960        C961   1.406       .  A
C960        H965   1.084       .  S
C961        C962   1.411       .  A
C962        F966   1.357       .  S
C963        C968   1.413       .  A
C963        C972   1.407       .  A
C968        C969   1.405       .  A
C968        F973   1.357       .  S
C969        C970   1.405       .  A
C969        H974   1.085       .  S
C970        C971   1.412       .  A
C971        C972   1.403       .  A
C971        F975   1.357       .  S
C972        H976   1.084       .  S
C977        C978   1.404       .  A
C977        C982   1.401       .  A
C977        H987   1.081       .  S
C978        C983   1.480       .  S
C978        C979   1.405       .  A
C979        C980   1.395       .  A
C979        F984   1.358       .  S
C980        C981   1.405       .  A
C980        H985   1.081       .  S
C981        C982   1.410       .  A
C982        F986   1.357       .  S
C983        C988   1.406       .  A
C983        C992   1.403       .  A
C988        C989   1.400       .  A
C988        F993   1.358       .  S
C989        C990   1.406       .  A
C989        H994   1.081       .  S
C990        C991   1.407       .  A
C991        C992   1.395       .  A
C991        F995   1.358       .  S
C992        H996   1.082       .  S
C997        C998   1.402       .  A
C997       C1002   1.398       .  A
C997       H1007   1.084       .  S
C998       C1003   1.488       .  S
C998        C999   1.408       .  A
C999       C1000   1.404       .  A
C999       F1004   1.357       .  S
C1000      C1001   1.407       .  A
C1000      H1005   1.084       .  S
C1001      C1002   1.412       .  A
C1002      F1006   1.358       .  S
C1003      C1008   1.407       .  A
C1003      C1012   1.404       .  A
C1008      C1009   1.400       .  A
C1008      F1013   1.357       .  S
C1009      C1010   1.405       .  A
C1009      H1014   1.083       .  S
C1010      C1011   1.413       .  A
C1011      C1012   1.402       .  A
C1011      F1015   1.358       .  S
C1012      H1016   1.084       .  S
C1017      C1018   1.406       .  A
C1017      C1022   1.399       .  A
C1017      H1027   1.081       .  S
C1018      C1023   1.490       .  S
C1018      C1019   1.409       .  A
C1019      C1020   1.399       .  A
C1019      F1024   1.357       .  S
C1020      C1021   1.405       .  A
C1020      H1025   1.080       .  S
C1021      C1022   1.408       .  A
C1022      F1026   1.358       .  S
C1023      C1028   1.408       .  A
C1023      C1032   1.407       .  A
C1028      C1029   1.396   1_565  A
C1028      F1033   1.358       .  S
C1029      C1030   1.405       .  A
C1029      H1034   1.082       .  S
C1030      C1031   1.408       .  A
C1031      C1032   1.401   1_545  A
C1031      F1035   1.357       .  S
C1032      H1036   1.081       .  S
C1037      C1038   1.402       .  A
C1037      C1042   1.393       .  A
C1037      H1047   1.083       .  S
C1038      C1043   1.483       .  S
C1038      C1039   1.408       .  A
C1039      C1040   1.404       .  A
C1039      F1044   1.358       .  S
C1040      C1041   1.407       .  A
C1040      H1045   1.082       .  S
C1041      C1042   1.407       .  A
C1042      F1046   1.357       .  S
C1043      C1048   1.406       .  A
C1043      C1052   1.405       .  A
C1048      C1049   1.393       .  A
C1048      F1053   1.358       .  S
C1049      C1050   1.404       .  A
C1049      H1054   1.084       .  S
C1050      C1051   1.409       .  A
C1051      C1052   1.403       .  A
C1051      F1055   1.357       .  S
C1052      H1056   1.082       .  S
C1057      C1058   1.402       .  A
C1057      C1062   1.395       .  A
C1057      H1067   1.084       .  S
C1058      C1063   1.477       .  S
C1058      C1059   1.405       .  A
C1059      C1060   1.401       .  A
C1059      F1064   1.357       .  S
C1060      C1061   1.406       .  A
C1060      H1065   1.081       .  S
C1061      C1062   1.408       .  A
C1062      F1066   1.358       .  S
C1063      C1068   1.404       .  A
C1063      C1072   1.401       .  A
C1068      C1069   1.401       .  A
C1068      F1073   1.357       .  S
C1069      C1070   1.407       .  A
C1069      H1074   1.083       .  S
C1070      C1071   1.411       .  A
C1071      C1072   1.395       .  A
C1071      F1075   1.358       .  S
C1072      H1076   1.081       .  S
C1077      C1078   1.411       .  A
C1077      C1082   1.402       .  A
C1077      H1087   1.080       .  S
C1078      C1083   1.498       .  S
C1078      C1079   1.410       .  A
C1079      C1080   1.400       .  A
C1079      F1084   1.357       .  S
C1080      C1081   1.404       .  A
C1080      H1085   1.081       .  S
C1081      C1082   1.405       .  A
C1082      F1086   1.358       .  S
C1083      C1088   1.409       .  A
C1083      C1092   1.412       .  A
C1088      C1089   1.398       .  A
C1088      F1093   1.357       .  S
C1089      C1090   1.405       .  A
C1089      H1094   1.080       .  S
C1090      C1091   1.405       .  A
C1091      C1092   1.404       .  A
C1091      F1095   1.357       .  S
C1092      H1096   1.080       .  S
C1097      C1098   1.402       .  A
C1097      C1102   1.399       .  A
C1097      H1107   1.081       .  S
C1098      C1103   1.474       .  S
C1098      C1099   1.403       .  A
C1099      C1100   1.396       .  A
C1099      F1104   1.358       .  S
C1100      C1101   1.405       .  A
C1100      H1105   1.084       .  S
C1101      C1102   1.408       .  A
C1102      F1106   1.357       .  S
C1103      C1108   1.404       .  A
C1103      C1112   1.401       .  A
C1108      C1109   1.397   1_565  A
C1108      F1113   1.358       .  S
C1109      C1110   1.406       .  A
C1109      H1114   1.087       .  S
C1110      C1111   1.409       .  A
C1111      C1112   1.398   1_545  A
C1111      F1115   1.357       .  S
C1112      H1116   1.085       .  S
C1117      C1118   1.403       .  A
C1117      C1122   1.398       .  A
C1117      H1127   1.082       .  S
C1118      C1123   1.484       .  S
C1118      C1119   1.407       .  A
C1119      C1120   1.405       .  A
C1119      F1124   1.357       .  S
C1120      C1121   1.407       .  A
C1120      H1125   1.081       .  S
C1121      C1122   1.409       .  A
C1122      F1126   1.358       .  S
C1123      C1128   1.406       .  A
C1123      C1132   1.402       .  A
C1128      C1129   1.404       .  A
C1128      F1133   1.357       .  S
C1129      C1130   1.407       .  A
C1129      H1134   1.081       .  S
C1130      C1131   1.410       .  A
C1131      C1132   1.400       .  A
C1131      F1135   1.357       .  S
C1132      H1136   1.083       .  S
C1137      C1138   1.403       .  A
C1137      C1142   1.395       .  A
C1137      H1147   1.082       .  S
C1138      C1143   1.492   1_554  S
C1138      C1139   1.410       .  A
C1139      C1140   1.409       .  A
C1139      F1144   1.357       .  S
C1140      C1141   1.408       .  A
C1140      H1145   1.082       .  S
C1141      C1142   1.410       .  A
C1142      F1146   1.358       .  S
C1143      C1148   1.408       .  A
C1143      C1152   1.406       .  A
C1148      C1149   1.400       .  A
C1148      F1153   1.358       .  S
C1149      C1150   1.405       .  A
C1149      H1154   1.082       .  S
C1150      C1151   1.409       .  A
C1151      C1152   1.406       .  A
C1151      F1155   1.357       .  S
C1152      H1156   1.082       .  S
C1157      C1158   1.408       .  A
C1157      C1162   1.406       .  A
C1157      H1167   1.082       .  S
C1158      C1163   1.493       .  S
C1158      C1159   1.407       .  A
C1159      C1160   1.399       .  A
C1159      F1164   1.358       .  S
C1160      C1161   1.408       .  A
C1160      H1165   1.082       .  S
C1161      C1162   1.409       .  A
C1162      F1166   1.357       .  S
C1163      C1168   1.407       .  A
C1163      C1172   1.407       .  A
C1168      C1169   1.402       .  A
C1168      F1173   1.358       .  S
C1169      C1170   1.409       .  A
C1169      H1174   1.082       .  S
C1170      C1171   1.408       .  A
C1171      C1172   1.402       .  A
C1171      F1175   1.357       .  S
C1172      H1176   1.083       .  S
C1177      C1178   1.405       .  A
C1177      C1182   1.407       .  A
C1177      H1187   1.082       .  S
C1178      C1183   1.482       .  S
C1178      C1179   1.402       .  A
C1179      C1180   1.397       .  A
C1179      F1184   1.358       .  S
C1180      C1181   1.407       .  A
C1180      H1185   1.083       .  S
C1181      C1182   1.411       .  A
C1182      F1186   1.357       .  S
C1183      C1188   1.406       .  A
C1183      C1192   1.401       .  A
C1188      C1189   1.405       .  A
C1188      F1193   1.357       .  S
C1189      C1190   1.407       .  A
C1189      H1194   1.083       .  S
C1190      C1191   1.411       .  A
C1191      C1192   1.399       .  A
C1191      F1195   1.358       .  S
C1192      H1196   1.083       .  S
C1197      C1198   1.404       .  A
C1197      C1202   1.395       .  A
C1197      H1207   1.083       .  S
C1198      C1203   1.483       .  S
C1198      C1199   1.408       .  A
C1199      C1200   1.399       .  A
C1199      F1204   1.357       .  S
C1200      C1201   1.404       .  A
C1200      H1205   1.082       .  S
C1201      C1202   1.408       .  A
C1202      F1206   1.358       .  S
C1203      C1208   1.407       .  A
C1203      C1212   1.406       .  A
C1208      C1209   1.394       .  A
C1208      F1213   1.358       .  S
C1209      C1210   1.404       .  A
C1209      H1214   1.084       .  S
C1210      C1211   1.407       .  A
C1211      C1212   1.399       .  A
C1211      F1215   1.357       .  S
C1212      H1216   1.083       .  S
C1217      C1218   1.403       .  A
C1217      C1222   1.394       .  A
C1217      H1227   1.081       .  S
C1218      C1223   1.482       .  S
C1218      C1219   1.407       .  A
C1219      C1220   1.402       .  A
C1219      F1224   1.357       .  S
C1220      C1221   1.407       .  A
C1220      H1225   1.080       .  S
C1221      C1222   1.408       .  A
C1222      F1226   1.358       .  S
C1223      C1228   1.406       .  A
C1223      C1232   1.405       .  A
C1228      C1229   1.395       .  A
C1228      F1233   1.358       .  S
C1229      C1230   1.404       .  A
C1229      H1234   1.081       .  S
C1230      C1231   1.408       .  A
C1231      C1232   1.401       .  A
C1231      F1235   1.357       .  S
C1232      H1236   1.080       .  S
C1237      C1238   1.407       .  A
C1237      C1242   1.406       .  A
C1237      H1247   1.080       .  S
C1238      C1243   1.486   1_554  S
C1238      C1239   1.405       .  A
C1239      C1240   1.397       .  A
C1239      F1244   1.358       .  S
C1240      C1241   1.405       .  A
C1240      H1245   1.082       .  S
C1241      C1242   1.408       .  A
C1242      F1246   1.357       .  S
C1243      C1248   1.408       .  A
C1243      C1252   1.403       .  A
C1248      C1249   1.403       .  A
C1248      F1253   1.357       .  S
C1249      C1250   1.405       .  A
C1249      H1254   1.082       .  S
C1250      C1251   1.409       .  A
C1251      C1252   1.399       .  A
C1251      F1255   1.358       .  S
C1252      H1256   1.083       .  S
C1257      C1258   1.406       .  A
C1257      C1262   1.402       .  A
C1257      H1267   1.081       .  S
C1258      C1263   1.486       .  S
C1258      C1259   1.406       .  A
C1259      C1260   1.396       .  A
C1259      F1264   1.358       .  S
C1260      C1261   1.406       .  A
C1260      H1265   1.082       .  S
C1261      C1262   1.410       .  A
C1262      F1266   1.357       .  S
C1263      C1268   1.408       .  A
C1263      C1272   1.405       .  A
C1268      C1269   1.402       .  A
C1268      F1273   1.358       .  S
C1269      C1270   1.405       .  A
C1269      H1274   1.080       .  S
C1270      C1271   1.405       .  A
C1271      C1272   1.397       .  A
C1271      F1275   1.357       .  S
C1272      H1276   1.082       .  S
C1277      C1278   1.404       .  A
C1277      C1282   1.397       .  A
C1277      H1287   1.083       .  S
C1278      C1283   1.490       .  S
C1278      C1279   1.410       .  A
C1279      C1280   1.404       .  A
C1279      F1284   1.357       .  S
C1280      C1281   1.405       .  A
C1280      H1285   1.084       .  S
C1281      C1282   1.409       .  A
C1282      F1286   1.358       .  S
C1283      C1288   1.411       .  A
C1283      C1292   1.405       .  A
C1288      C1289   1.401       .  A
C1288      F1293   1.357       .  S
C1289      C1290   1.402       .  A
C1289      H1294   1.084       .  S
C1290      C1291   1.408       .  A
C1291      C1292   1.401       .  A
C1291      F1295   1.358       .  S
C1292      H1296   1.083       .  S
C1297      C1298   1.404       .  A
C1297      C1302   1.397       .  A
C1297      H1307   1.082       .  S
C1298      C1303   1.482   1_455  S
C1298      C1299   1.407       .  A
C1299      C1300   1.400       .  A
C1299      F1304   1.357       .  S
C1300      C1301   1.405       .  A
C1300      H1305   1.081       .  S
C1301      C1302   1.408       .  A
C1302      F1306   1.358       .  S
C1303      C1308   1.406       .  A
C1303      C1312   1.404       .  A
C1308      C1309   1.397       .  A
C1308      F1313   1.358   1_655  S
C1309      C1310   1.405       .  A
C1309      H1314   1.083       .  S
C1310      C1311   1.408       .  A
C1311      C1312   1.400       .  A
C1311      F1315   1.357       .  S
C1312      H1316   1.082       .  S
C1317      C1318   1.405       .  A
C1317      C1322   1.397       .  A
C1317      H1327   1.081       .  S
C1318      C1323   1.488       .  S
C1318      C1319   1.407       .  A
C1319      C1320   1.402       .  A
C1319      F1324   1.357       .  S
C1320      C1321   1.407       .  A
C1320      H1325   1.080       .  S
C1321      C1322   1.409       .  A
C1322      F1326   1.358       .  S
C1323      C1328   1.407       .  A
C1323      C1332   1.407       .  A
C1328      C1329   1.396       .  A
C1328      F1333   1.358       .  S
C1329      C1330   1.405       .  A
C1329      H1334   1.082       .  S
C1330      C1331   1.410       .  A
C1331      C1332   1.403       .  A
C1331      F1335   1.357       .  S
C1332      H1336   1.080       .  S
C1337      C1338   1.404       .  A
C1337      C1342   1.399       .  A
C1337      H1347   1.084       .  S
C1338      C1343   1.492       .  S
C1338      C1339   1.411       .  A
C1339      C1340   1.403       .  A
C1339      F1344   1.357       .  S
C1340      C1341   1.404       .  A
C1340      H1345   1.085       .  S
C1341      C1342   1.410       .  A
C1342      F1346   1.358       .  S
C1343      C1348   1.411       .  A
C1343      C1352   1.405       .  A
C1348      C1349   1.401       .  A
C1348      F1353   1.357       .  S
C1349      C1350   1.404       .  A
C1349      H1354   1.085       .  S
C1350      C1351   1.408       .  A
C1351      C1352   1.399       .  A
C1351      F1355   1.357       .  S
C1352      H1356   1.084       .  S
C1357      C1358   1.403       .  A
C1357      C1362   1.394       .  A
C1357      H1367   1.082       .  S
C1358      C1363   1.479       .  S
C1358      C1359   1.406       .  A
C1359      C1360   1.401       .  A
C1359      F1364   1.357       .  S
C1360      C1361   1.406       .  A
C1360      H1365   1.082       .  S
C1361      C1362   1.406       .  A
C1362      F1366   1.358       .  S
C1363      C1368   1.405       .  A
C1363      C1372   1.404       .  A
C1368      C1369   1.394   1_565  A
C1368      F1373   1.358       .  S
C1369      C1370   1.404       .  A
C1369      H1374   1.083       .  S
C1370      C1371   1.410       .  A
C1371      C1372   1.400   1_545  A
C1371      F1375   1.357       .  S
C1372      H1376   1.081       .  S
C1377      C1378   1.402       .  A
C1377      C1382   1.394       .  A
C1377      H1387   1.082       .  S
C1378      C1383   1.478       .  S
C1378      C1379   1.406       .  A
C1379      C1380   1.400       .  A
C1379      F1384   1.357       .  S
C1380      C1381   1.406       .  A
C1380      H1385   1.081       .  S
C1381      C1382   1.408       .  A
C1382      F1386   1.358       .  S
C1383      C1388   1.405       .  A
C1383      C1392   1.403       .  A
C1388      C1389   1.395       .  A
C1388      F1393   1.358       .  S
C1389      C1390   1.405       .  A
C1389      H1394   1.083       .  S
C1390      C1391   1.408       .  A
C1391      C1392   1.399       .  A
C1391      F1395   1.357       .  S
C1392      H1396   1.081       .  S
C1397      C1398   1.405       .  A
C1397      C1402   1.398       .  A
C1397      H1407   1.082       .  S
C1398      C1403   1.487       .  S
C1398      C1399   1.407       .  A
C1399      C1400   1.400       .  A
C1399      F1404   1.357       .  S
C1400      C1401   1.406       .  A
C1400      H1405   1.082       .  S
C1401      C1402   1.408       .  A
C1402      F1406   1.358       .  S
C1403      C1408   1.406       .  A
C1403      C1412   1.406       .  A
C1408      C1409   1.396       .  A
C1408      F1413   1.358       .  S
C1409      C1410   1.406       .  A
C1409      H1414   1.084       .  S
C1410      C1411   1.409       .  A
C1411      C1412   1.402       .  A
C1411      F1415   1.357       .  S
C1412      H1416   1.082       .  S
C1417      C1418   1.403       .  A
C1417      C1422   1.396       .  A
C1417      H1427   1.083       .  S
C1418      C1423   1.484       .  S
C1418      C1419   1.406       .  A
C1419      C1420   1.402       .  A
C1419      F1424   1.357       .  S
C1420      C1421   1.407       .  A
C1420      H1425   1.082       .  S
C1421      C1422   1.409       .  A
C1422      F1426   1.358       .  S
C1423      C1428   1.406       .  A
C1423      C1432   1.406       .  A
C1428      C1429   1.397       .  A
C1428      F1433   1.358       .  S
C1429      C1430   1.403       .  A
C1429      H1434   1.084       .  S
C1430      C1431   1.407       .  A
C1431      C1432   1.402       .  A
C1431      F1435   1.357       .  S
C1432      H1436   1.082       .  S
C1437      C1438   1.406       .  A
C1437      C1442   1.399       .  A
C1437      H1447   1.084       .  S
C1438      C1443   1.498       .  S
C1438      C1439   1.412       .  A
C1439      C1440   1.405       .  A
C1439      F1444   1.357       .  S
C1440      C1441   1.405       .  A
C1440      H1445   1.084       .  S
C1441      C1442   1.410       .  A
C1442      F1446   1.358       .  S
C1443      C1448   1.412       .  A
C1443      C1452   1.406       .  A
C1448      C1449   1.402       .  A
C1448      F1453   1.357       .  S
C1449      C1450   1.404       .  A
C1449      H1454   1.085       .  S
C1450      C1451   1.412       .  A
C1451      C1452   1.402       .  A
C1451      F1455   1.358       .  S
C1452      H1456   1.085       .  S
C1457      C1458   1.402       .  A
C1457      C1462   1.394       .  A
C1457      H1467   1.082       .  S
C1458      C1463   1.477   1_655  S
C1458      C1459   1.405       .  A
C1459      C1460   1.401       .  A
C1459      F1464   1.357       .  S
C1460      C1461   1.405       .  A
C1460      H1465   1.081       .  S
C1461      C1462   1.406       .  A
C1462      F1466   1.358       .  S
C1463      C1468   1.403       .  A
C1463      C1472   1.404       .  A
C1468      C1469   1.392       .  A
C1468      F1473   1.358       .  S
C1469      C1470   1.405       .  A
C1469      H1474   1.083       .  S
C1470      C1471   1.409       .  A
C1471      C1472   1.402       .  A
C1471      F1475   1.357       .  S
C1472      H1476   1.082       .  S
C1477      C1478   1.402       .  A
C1477      C1482   1.394       .  A
C1477      H1487   1.085       .  S
C1478      C1483   1.489       .  S
C1478      C1479   1.408       .  A
C1479      C1480   1.407       .  A
C1479      F1484   1.357       .  S
C1480      C1481   1.408       .  A
C1480      H1485   1.083       .  S
C1481      C1482   1.411       .  A
C1482      F1486   1.358       .  S
C1483      C1488   1.406       .  A
C1483      C1492   1.408       .  A
C1488      C1489   1.394       .  A
C1488      F1493   1.358       .  S
C1489      C1490   1.405       .  A
C1489      H1494   1.082       .  S
C1490      C1491   1.409       .  A
C1491      C1492   1.408       .  A
C1491      F1495   1.357       .  S
C1492      H1496   1.082       .  S
C1497      C1498   1.402       .  A
C1497      C1502   1.399       .  A
C1497      H1507   1.081       .  S
C1498      C1503   1.478       .  S
C1498      C1499   1.404       .  A
C1499      C1500   1.397       .  A
C1499      F1504   1.358       .  S
C1500      C1501   1.406       .  A
C1500      H1505   1.081       .  S
C1501      C1502   1.409       .  A
C1502      F1506   1.357       .  S
C1503      C1508   1.405       .  A
C1503      C1512   1.402       .  A
C1508      C1509   1.401       .  A
C1508      F1513   1.358       .  S
C1509      C1510   1.406       .  A
C1509      H1514   1.080       .  S
C1510      C1511   1.406       .  A
C1511      C1512   1.396       .  A
C1511      F1515   1.357       .  S
C1512      H1516   1.082       .  S
C1517      C1518   1.403       .  A
C1517      C1522   1.400       .  A
C1517      H1527   1.083       .  S
C1518      C1523   1.484       .  S
C1518      C1519   1.407       .  A
C1519      C1520   1.402       .  A
C1519      F1524   1.357       .  S
C1520      C1521   1.406       .  A
C1520      H1525   1.083       .  S
C1521      C1522   1.410       .  A
C1522      F1526   1.358       .  S
C1523      C1528   1.404   1_554  A
C1523      C1532   1.407   1_554  A
C1528      C1529   1.396       .  A
C1528      F1533   1.358   1_556  S
C1529      C1530   1.406       .  A
C1529      H1534   1.083       .  S
C1530      C1531   1.408       .  A
C1531      C1532   1.405       .  A
C1531      F1535   1.357       .  S
C1532      H1536   1.081       .  S
C1537      C1538   1.409       .  A
C1537      C1542   1.404       .  A
C1537      H1547   1.082       .  S
C1538      C1543   1.494       .  S
C1538      C1539   1.406       .  A
C1539      C1540   1.400       .  A
C1539      F1544   1.357       .  S
C1540      C1541   1.409       .  A
C1540      H1545   1.082       .  S
C1541      C1542   1.408       .  A
C1542      F1546   1.357       .  S
C1543      C1548   1.406       .  A
C1543      C1552   1.410       .  A
C1548      C1549   1.396       .  A
C1548      F1553   1.357       .  S
C1549      C1550   1.406       .  A
C1549      H1554   1.082       .  S
C1550      C1551   1.409       .  A
C1551      C1552   1.407       .  A
C1551      F1555   1.357       .  S
C1552      H1556   1.082       .  S
C1557      C1558   1.405       .  A
C1557      C1562   1.396       .  A
C1557      H1567   1.081       .  S
C1558      C1563   1.488       .  S
C1558      C1559   1.408       .  A
C1559      C1560   1.402       .  A
C1559      F1564   1.357       .  S
C1560      C1561   1.407       .  A
C1560      H1565   1.080       .  S
C1561      C1562   1.408       .  A
C1562      F1566   1.358       .  S
C1563      C1568   1.407       .  A
C1563      C1572   1.406       .  A
C1568      C1569   1.396   1_565  A
C1568      F1573   1.358       .  S
C1569      C1570   1.405       .  A
C1569      H1574   1.081       .  S
C1570      C1571   1.409       .  A
C1571      C1572   1.402   1_545  A
C1571      F1575   1.357       .  S
C1572      H1576   1.080       .  S
C1577      C1578   1.408       .  A
C1577      C1582   1.405       .  A
C1577      H1587   1.080       .  S
C1578      C1583   1.493       .  S
C1578      C1579   1.407       .  A
C1579      C1580   1.403       .  A
C1579      F1584   1.357       .  S
C1580      C1581   1.407       .  A
C1580      H1585   1.081       .  S
C1581      C1582   1.407       .  A
C1582      F1586   1.357       .  S
C1583      C1588   1.410       .  A
C1583      C1592   1.403       .  A
C1588      C1589   1.409       .  A
C1588      F1593   1.357       .  S
C1589      C1590   1.408       .  A
C1589      H1594   1.081       .  S
C1590      C1591   1.409       .  A
C1591      C1592   1.399       .  A
C1591      F1595   1.358       .  S
C1592      H1596   1.082       .  S
C1597      C1598   1.405       .  A
C1597      C1602   1.396       .  A
C1597      H1607   1.081       .  S
C1598      C1603   1.485       .  S
C1598      C1599   1.408       .  A
C1599      C1600   1.400       .  A
C1599      F1604   1.357       .  S
C1600      C1601   1.405       .  A
C1600      H1605   1.081       .  S
C1601      C1602   1.407       .  A
C1602      F1606   1.358       .  S
C1603      C1608   1.407       .  A
C1603      C1612   1.407       .  A
C1608      C1609   1.394       .  A
C1608      F1613   1.358       .  S
C1609      C1610   1.404       .  A
C1609      H1614   1.083       .  S
C1610      C1611   1.407       .  A
C1611      C1612   1.401       .  A
C1611      F1615   1.357       .  S
C1612      H1616   1.081       .  S
C1617      C1618   1.403       .  A
C1617      C1622   1.398       .  A
C1617      H1627   1.082       .  S
C1618      C1623   1.483       .  S
C1618      C1619   1.405       .  A
C1619      C1620   1.402       .  A
C1619      F1624   1.357       .  S
C1620      C1621   1.408       .  A
C1620      H1625   1.081       .  S
C1621      C1622   1.409       .  A
C1622      F1626   1.357       .  S
C1623      C1628   1.405       .  A
C1623      C1632   1.405       .  A
C1628      C1629   1.396       .  A
C1628      F1633   1.358       .  S
C1629      C1630   1.406       .  A
C1629      H1634   1.083       .  S
C1630      C1631   1.410       .  A
C1631      C1632   1.404       .  A
C1631      F1635   1.357       .  S
C1632      H1636   1.082       .  S
C1637      C1638   1.404   1_556  A
C1637      C1642   1.401       .  A
C1637      H1647   1.082   1_556  S
C1638      C1643   1.492       .  S
C1638      C1639   1.409   1_554  A
C1639      C1640   1.405       .  A
C1639      F1644   1.357   1_556  S
C1640      C1641   1.406       .  A
C1640      H1645   1.081       .  S
C1641      C1642   1.410       .  A
C1642      F1646   1.358       .  S
C1643      C1648   1.409       .  A
C1643      C1652   1.404       .  A
C1648      C1649   1.406       .  A
C1648      F1653   1.357       .  S
C1649      C1650   1.407       .  A
C1649      H1654   1.082       .  S
C1650      C1651   1.409       .  A
C1651      C1652   1.399       .  A
C1651      F1655   1.357       .  S
C1652      H1656   1.083       .  S
C1657      C1658   1.402       .  A
C1657      C1662   1.394       .  A
C1657      H1667   1.083       .  S
C1658      C1663   1.480       .  S
C1658      C1659   1.406       .  A
C1659      C1660   1.403       .  A
C1659      F1664   1.357       .  S
C1660      C1661   1.407       .  A
C1660      H1665   1.082       .  S
C1661      C1662   1.408       .  A
C1662      F1666   1.358       .  S
C1663      C1668   1.405       .  A
C1663      C1672   1.404       .  A
C1668      C1669   1.394       .  A
C1668      F1673   1.358       .  S
C1669      C1670   1.404       .  A
C1669      H1674   1.084       .  S
C1670      C1671   1.409       .  A
C1671      C1672   1.402       .  A
C1671      F1675   1.357       .  S
C1672      H1676   1.082       .  S
C1677      C1678   1.408       .  A
C1677      C1682   1.405       .  A
C1677      H1687   1.083       .  S
C1678      C1683   1.495       .  S
C1678      C1679   1.408       .  A
C1679      C1680   1.401       .  A
C1679      F1684   1.358       .  S
C1680      C1681   1.408       .  A
C1680      H1685   1.083       .  S
C1681      C1682   1.409       .  A
C1682      F1686   1.357       .  S
C1683      C1688   1.410       .  A
C1683      C1692   1.405       .  A
C1688      C1689   1.403       .  A
C1688      F1693   1.357       .  S
C1689      C1690   1.405       .  A
C1689      H1694   1.084       .  S
C1690      C1691   1.413       .  A
C1691      C1692   1.403       .  A
C1691      F1695   1.358       .  S
C1692      H1696   1.083       .  S
