geometry optimzed in LAMMPS
_audit_creation_date              2020-11-30 
_audit_creation_method            'lammps2cif' 
_symmetry_space_group_name_H-M    'P1' 
_symmetry_Int_Tables_number       1 
_symmetry_cell_setting            triclinic 
loop_ 
_symmetry_equiv_pos_as_xyz 
  x,y,z 
_cell_length_a                    38.39037193 
_cell_length_b                    38.55585358257489 
_cell_length_c                    38.510214789925065 
_cell_angle_alpha                 89.81206169207488 
_cell_angle_beta                  91.29447297282788 
_cell_angle_gamma                 90.11672709236669 
loop_ 
_atom_site_label 
_atom_site_type_symbol 
_atom_site_fract_x 
_atom_site_fract_y 
_atom_site_fract_z 
_atom_site_charge 
C1          C  0.42507829  0.24699945  0.34175974     0.03700
C2          C  0.39056520  0.23366353  0.33957207     0.03700
C3          C  0.37970045  0.21350624  0.36694334    -0.16800
C4          C  0.38814846  0.22523996  0.40025935     0.03700
C5          C  0.42231295  0.24021898  0.40572507     0.03700
C6          C  0.44169989  0.24853412  0.37536430    -0.16800
H7          H  0.46822678  0.25792966  0.37794355     0.05800
H8          H  0.35571685  0.19890414  0.36283025     0.05800
C9          C  0.23763683  0.33866604  0.42868768     0.03700
C10         C  0.22484686  0.33671985  0.39370171     0.03700
C11         C  0.20552068  0.36479345  0.38143622    -0.16800
C12         C  0.21845387  0.39741137  0.38980992     0.03700
C13         C  0.23014889  0.40243624  0.42488589     0.03700
C14         C  0.23793084  0.37196144  0.44510810    -0.16800
H15         H  0.24582345  0.37425992  0.47217338     0.05800
H16         H  0.19121690  0.36173646  0.35697696     0.05800
C17         C  0.40808516  0.43129446  0.25745643     0.03700
C18         C  0.40913881  0.39666211  0.27021799     0.03700
C19         C  0.38207173  0.38598567  0.29071984    -0.16800
C20         C  0.34864394  0.39572464  0.28008254     0.03700
C21         C  0.34406533  0.43019064  0.26609690     0.03700
C22         C  0.37513822  0.44874738  0.25734556    -0.16800
H23         H  0.37335836  0.47519741  0.24794947     0.05800
H24         H  0.38542761  0.36156933  0.30460401     0.05800
O25         O  0.35830000  0.22528165  0.45623632    -0.77000
C26         C  0.30049910  0.24384665  0.05828220     0.84000
O27         O  0.28133017  0.13150029  0.49151917    -0.78100
O28         O  0.19175496  0.21875338  0.00258222    -0.79600
O29         O  0.26869488  0.28704366  0.42851572    -0.79400
O30         O  0.32712681  0.22946774  0.40783087    -0.78100
Zn31       Zn  0.31940146  0.21092615  0.48851738     1.55700
O32         O  0.23530705  0.29496800  0.47449932    -0.79400
Cd33       Cd  0.27737694  0.23549909  0.42416149     1.59700
Cd34       Cd  0.25677075  0.17005732  0.46164946     1.59600
O35         O  0.24494322  0.21016022  0.38692066    -0.79400
O36         O  0.27358313  0.21671941  0.47083912    -1.89900
Cd37       Cd  0.24171628  0.24581664  0.00106433     1.59900
O38         O  0.25796094  0.15873653  0.40924108    -0.79400
O39         O  0.26831267  0.25120136  0.05142417    -0.78100
C40         C  0.31289677  0.13306707  0.50195936     0.84500
C41         C  0.35672781  0.22711506  0.42325918     0.84100
O42         O  0.31940557  0.23111776  0.03504225    -0.77000
C43         C  0.24874177  0.30586466  0.44609954     0.85000
O44         O  0.32936321  0.16155222  0.49925361    -0.77100
C45         C  0.24573132  0.17717456  0.38418329     0.85100
C46         C  0.18362292  0.18969252  0.98798777     0.85400
O47         O  0.20613458  0.17230416  0.47218134    -0.79500
O48         O  0.35769513  0.25431292  0.28858712    -0.77000
C49         C  0.29963661  0.26214312  0.19169893     0.84000
O50         O  0.29186185  0.36722011  0.28037872    -0.78100
O51         O  0.19598687  0.27827988  0.24298789    -0.79600
O52         O  0.26930251  0.21219790  0.32479889    -0.79400
O53         O  0.33592645  0.26172494  0.34076120    -0.78100
Zn54       Zn  0.32203140  0.28663489  0.26414445     1.55700
O55         O  0.24152326  0.20201543  0.27416769    -0.79400
Cd56       Cd  0.28347313  0.26244212  0.32816454     1.59700
Cd57       Cd  0.25756988  0.32710281  0.28742815     1.59600
O58         O  0.25401122  0.28682317  0.36674481    -0.79400
O59         O  0.27650575  0.28104440  0.28113963    -1.89900
Cd60       Cd  0.24534739  0.25213438  0.24941838     1.59900
O61         O  0.24358858  0.33402181  0.33634981    -0.79400
O62         O  0.26987783  0.24966780  0.19991215    -0.78100
C63         C  0.32443877  0.36506307  0.27662172     0.84500
C64         C  0.36053885  0.25147381  0.32152572     0.84100
O65         O  0.31889535  0.27758839  0.21390787    -0.77000
C66         C  0.25279347  0.19200085  0.30434046     0.85000
O67         O  0.33817887  0.33556207  0.27102538    -0.77100
C68         C  0.24168638  0.31737926  0.36461589     0.85100
C69         C  0.18924264  0.31055283  0.24784404     0.85400
O70         O  0.21149875  0.33044013  0.26196572    -0.79500
O71         O  0.20750194  0.39069113  0.24683517    -0.77000
C72         C  0.30822838  0.44624259  0.26306261     0.84000
O73         O  0.23248859  0.45300653  0.36271533    -0.78100
O74         O  0.24641014  0.05216065  0.27184727    -0.79600
O75         O  0.17407946  0.50507270  0.21639967    -0.79400
O76         O  0.15973954  0.42143364  0.24088866    -0.78100
Zn77       Zn  0.23264328  0.42468185  0.28031770     1.55700
O78         O  0.22722242  0.99715223  0.19703465    -0.79400
Cd79       Cd  0.17228415  0.47088376  0.25717896     1.59700
Cd80       Cd  0.21796952  0.48924488  0.32493371     1.59600
O81         O  0.13485296  0.48057844  0.29320001    -0.79400
O82         O  0.21913927  0.47120954  0.27716012    -1.89900
Cd83       Cd  0.25094709  0.50120813  0.24823483     1.59900
O84         O  0.16645030  0.49789991  0.33867362    -0.79400
O85         O  0.30224410  0.47718226  0.25166605    -0.78100
C86         C  0.22449257  0.42117266  0.35927433     0.84500
C87         C  0.17551534  0.39263073  0.23767567     0.84100
O88         O  0.28327561  0.42773128  0.27343011    -0.77000
C89         C  0.19419943  0.99930894  0.19125317     0.85000
O90         O  0.22218607  0.40809941  0.32887167    -0.77100
C91         C  0.13701520  0.48961850  0.32478983     0.85100
C92         C  0.24620766  0.05809510  0.30475621     0.85400
O93         O  0.24887857  0.03302709  0.32608884    -0.79500
C94         C  0.24337885  0.15784596  0.31951091     0.03700
C95         C  0.23034972  0.15768790  0.35374789     0.03700
C96         C  0.21236470  0.12861428  0.36392945    -0.16800
C97         C  0.22452923  0.09635095  0.35345885     0.03700
C98         C  0.23974936  0.09346554  0.31994575     0.03700
C99         C  0.24619658  0.12532228  0.30175639    -0.16800
H100        H  0.25613762  0.12472938  0.27567972     0.05800
H101        H  0.19818523  0.13042676  0.38800527     0.05800
O102        O  0.19844142  0.11013230  0.48055459    -0.77000
C103        C  0.30006693  0.05088699  0.99588051     0.84000
O104        O  0.21559137  0.03978778  0.37993408    -0.78100
O105        O  0.24343505  0.44626473  0.46914583    -0.79600
O106        O  0.17145149  0.02563635  0.04010534    -0.79400
O107        O  0.15002060  0.07945293  0.47660159    -0.78100
Zn108      Zn  0.23013667  0.07180799  0.46247941     1.55700
O109        O  0.21545536  0.48835622  0.04644864    -0.79400
Cd110      Cd  0.16689430  0.03061996  0.48800175     1.59700
Cd111      Cd  0.19972560  0.01164083  0.42239125     1.59600
O112        O  0.13191695  0.99488510  0.46476983    -0.79400
O113        O  0.21298965  0.02703835  0.46863917    -1.89900
Cd114      Cd  0.24229918  0.99436463  0.49763862     1.59900
O115        O  0.14818458  0.52077141  0.41728206    -0.79400
O116        O  0.29271051  0.01929658  0.00396120    -0.78100
C117        C  0.22554401  0.07099058  0.38284121     0.84500
C118        C  0.16539834  0.10881280  0.47683661     0.84100
O119        O  0.27763643  0.07010927  0.48102178    -0.77000
C120        C  0.18835835  0.50377145  0.05822176     0.85000
O121        O  0.23255714  0.08353744  0.41267455    -0.77100
C122        C  0.12718456  0.00106796  0.43255542     0.85100
C123        C  0.22843190  0.43810774  0.44001330     0.85400
O124        O  0.21054948  0.46004874  0.42237873    -0.79500
C125        C  0.33282898  0.10311466  0.51809839     0.03700
C126        C  0.33365581  0.06825024  0.50580190     0.03700
C127        C  0.36691048  0.05145721  0.00477621    -0.16800
C128        C  0.39819352  0.07070275  0.01244683     0.03700
C129        C  0.39414492  0.10495162  0.02649210     0.03700
C130        C  0.36129457  0.11402604  0.03791181    -0.16800
H131        H  0.35865934  0.13806477  0.05229585     0.05800
H132        H  0.36851940  0.02488051  0.99596437     0.05800
C133        C  0.07115075  0.49676676  0.34306734     0.03700
C134        C  0.10660307  0.48580448  0.34856895     0.03700
C135        C  0.11567641  0.47147991  0.38062881    -0.16800
C136        C  0.10034344  0.98461174  0.40991369     0.03700
C137        C  0.06572024  0.99731523  0.40704695     0.03700
C138        C  0.05031584  0.50107243  0.37314010    -0.16800
H139        H  0.02327634  0.50870110  0.37024254     0.05800
H140        H  0.14128117  0.45968578  0.38389707     0.05800
C141        C  0.01285894  0.41120491  0.10312306     0.03700
C142        C  0.99909328  0.41236194  0.06858440     0.03700
C143        C  0.49287283  0.37994035  0.05131603    -0.16800
C144        C  0.49332850  0.34813392  0.07077820     0.03700
C145        C  0.50236399  0.35007073  0.10695709     0.03700
C146        C  0.51970328  0.37943057  0.11846164    -0.16800
H147        H  0.53120210  0.37894549  0.14423245     0.05800
H148        H  0.48497562  0.37968615  0.02414696     0.05800
C149        C  0.15530943  0.32667925  0.23696730     0.03700
C150        C  0.15362990  0.36208597  0.22487602     0.03700
C151        C  0.12256835  0.37250045  0.20860627    -0.16800
C152        C  0.09128376  0.35828703  0.21901994     0.03700
C153        C  0.09070892  0.32425183  0.23322826     0.03700
C154        C  0.12332743  0.30757674  0.23957538    -0.16800
H155        H  0.12376904  0.28102992  0.24886102     0.05800
H156        H  0.12165039  0.39750436  0.19578302     0.05800
C157        C  0.31724312  0.24580451  0.09405881     0.03700
C158        C  0.35163816  0.23182774  0.09966864     0.03700
C159        C  0.35996946  0.21984111  0.13291733    -0.16800
C160        C  0.35041482  0.24095473  0.15975132     0.03700
C161        C  0.31608108  0.25436584  0.15798873     0.03700
C162        C  0.29839848  0.25456888  0.12469453    -0.16800
H163        H  0.27144246  0.26264483  0.12258181     0.05800
H164        H  0.38329840  0.20435420  0.13716576     0.05800
O165        O  0.38179092  0.26368095  0.21065195    -0.77000
C166        C  0.44199529  0.25717826  0.30870925     0.84000
O167        O  0.45912864  0.36670860  0.24718179    -0.78100
O168        O  0.04932535  0.27841000  0.25160715    -0.79600
O169        O  0.47661803  0.21762904  0.17576084    -0.79400
O170        O  0.40791808  0.26285018  0.15998940    -0.78100
Zn171      Zn  0.41936307  0.28967955  0.23894428     1.55700
O172        O  0.00233789  0.20483482  0.22657119    -0.79400
Cd173      Cd  0.45957099  0.26694638  0.17383882     1.59700
Cd174      Cd  0.48047105  0.33043084  0.21433115     1.59600
O175        O  0.48749721  0.29601465  0.13708321    -0.79400
O176        O  0.46435462  0.28359997  0.22139331    -1.89900
Cd177      Cd  0.49797433  0.25433369  0.25161954     1.59900
O178        O  0.47768526  0.34599430  0.16279753    -0.79400
O179        O  0.47384369  0.24983963  0.30182132    -0.78100
C180        C  0.42675078  0.36692167  0.25301521     0.84500
C181        C  0.38109346  0.25728836  0.17821649     0.84100
O182        O  0.42197805  0.27108082  0.28612929    -0.77000
C183        C  0.99285512  0.19656925  0.19545806     0.85000
O184        O  0.40799258  0.34039289  0.24554326    -0.77100
C185        C  0.48786668  0.32904151  0.13641512     0.85100
C186        C  0.05547482  0.30782727  0.23723326     0.85400
O187        O  0.03078362  0.32547779  0.22424696    -0.79500
O188        O  0.03995929  0.39151280  0.20282018    -0.77000
C189        C  0.44090221  0.44771216  0.24497064     0.84000
O190        O  0.03709347  0.46097577  0.13256390    -0.78100
O191        O  0.49641807  0.05602434  0.22105554    -0.79600
O192        O  0.07248591  0.47699718  0.28636089    -0.79400
O193        O  0.06853010  0.40433859  0.25104022    -0.78100
Zn194      Zn  0.00454586  0.43238726  0.20144995     1.55700
O195        O  0.02596325  0.00867208  0.29794246    -0.79400
Cd196      Cd  0.07019749  0.45545266  0.23979068     1.59700
Cd197      Cd  0.04438332  0.49429238  0.17528778     1.59600
O198        O  0.11273125  0.45891089  0.20676062    -0.79400
O199        O  0.02743754  0.47298327  0.21752466    -1.89900
Cd200      Cd  0.49913500  0.50549718  0.24751787     1.59900
O201        O  0.09581443  0.50541682  0.17812216    -0.79400
O202        O  0.44959186  0.47908162  0.25306790    -0.78100
C203        C  0.51206596  0.43955385  0.12898971     0.84500
C204        C  0.06393865  0.38472986  0.22522577     0.84100
O205        O  0.46083364  0.42847187  0.22745503    -0.77000
C206        C  0.05548974  0.99524047  0.30714459     0.85000
O207        O  0.48922068  0.43717523  0.15209030    -0.77100
C208        C  0.11756218  0.48140758  0.18326956     0.85100
C209        C  0.50880119  0.06398497  0.19115760     0.85400
O210        O  0.02497463  0.04180207  0.17380481    -0.79500
O211        O  0.45063982  0.13517776  0.02951794    -0.77000
C212        C  0.05064338  0.19445119  0.50269517     0.84000
O213        O  0.49640630  0.21845662  0.11544581    -0.78100
O214        O  0.99795575  0.30335580  0.02590192    -0.79600
O215        O  0.41992016  0.22803385  0.46492298    -0.79400
O216        O  0.40331904  0.16494072  0.01709448    -0.78100
Zn217      Zn  0.48356722  0.17584237  0.03919210     1.55700
O218        O  0.46828155  0.25450679  0.44951604    -0.79400
Cd219      Cd  0.41877322  0.21557354  0.01505810     1.59700
Cd220      Cd  0.46260749  0.24081920  0.07791759     1.59600
O221        O  0.38148768  0.23992344  0.04443028    -0.79400
O222        O  0.46651591  0.22143783  0.03178251    -1.89900
Cd223      Cd  0.49448155  0.25290176  0.50038353     1.59900
O224        O  0.41270558  0.23161802  0.09226242    -0.79400
O225        O  0.04381088  0.22660272  0.49634401    -0.78100
C226        C  0.50247124  0.18604073  0.11518036     0.84500
C227        C  0.41800285  0.13602389  0.02347846     0.84100
O228        O  0.02858333  0.17450802  0.01661750    -0.77000
C229        C  0.43800489  0.24189680  0.44180221     0.85000
O230        O  0.49562795  0.16865735  0.08800690    -0.77100
C231        C  0.38300745  0.23463391  0.07699587     0.85100
C232        C  0.48567095  0.31332746  0.05518884     0.85400
O233        O  0.46929560  0.29262584  0.07452205    -0.79500
C234        C  0.17726724  0.49133229  0.15659619     0.03700
C235        C  0.14343461  0.47650710  0.15601302     0.03700
C236        C  0.12772831  0.46712014  0.12454183    -0.18400
C237        C  0.13734535  0.98377638  0.09407290     0.03700
C238        C  0.17315891  0.99453818  0.09229356     0.03700
C239        C  0.19332931  0.49685473  0.12398668    -0.16800
H240        H  0.21995484  0.50613360  0.12336874     0.05800
H241        H  0.10243663  0.45461978  0.12535120     0.05800
O242        O  0.03078846  0.11137593  0.99704117    -0.77000
C243        C  0.43403991  0.05546078  0.50974601     0.84000
O244        O  0.01595267  0.04831055  0.11240993    -0.78100
O245        O  0.49468355  0.45222535  0.01923752    -0.79600
O246        O  0.06861876  0.02013745  0.46300136    -0.79400
O247        O  0.08326382  0.08981230  0.50782951    -0.78100
Zn248      Zn  0.00841078  0.07780227  0.03108100     1.55700
O249        O  0.01638735  0.50029881  0.44598735    -0.79400
Cd250      Cd  0.07156643  0.03772668  0.01218251     1.59700
Cd251      Cd  0.02604435  0.01232220  0.07388031     1.59600
O252        O  0.10972980  0.01142626  0.04255015    -0.79400
O253        O  0.02410615  0.03212846  0.02722315    -1.89900
Cd254      Cd  0.49237051  0.00267942  0.49578595     1.59900
O255        O  0.07626779  0.49432295  0.08508577    -0.79400
O256        O  0.44072442  0.02574512  0.49630014    -0.78100
C257        C  0.01834917  0.08107333  0.10989592     0.84500
C258        C  0.06377686  0.11400835  0.99571941     0.84100
O259        O  0.45842365  0.07361374  0.02261295    -0.77000
C260        C  0.04847479  0.50712203  0.43989524     0.85000
O261        O  0.51759464  0.09523014  0.07984847    -0.77100
C262        C  0.10646960  0.99648116  0.07184992     0.85100
C263        C  0.49347649  0.44719107  0.05208772     0.85400
O264        O  0.99025435  0.47290271  0.07233822    -0.79500
C265        C  0.50379369  0.16375111  0.17873260     0.03700
C266        C  0.51807289  0.16577054  0.14497878     0.03700
C267        C  0.03612449  0.13706500  0.13351910    -0.16800
C268        C  0.02235772  0.10460720  0.14115177     0.03700
C269        C  0.00844770  0.09971983  0.17526557     0.03700
C270        C  0.00128999  0.13034482  0.19481787    -0.16800
H271        H  0.99216817  0.12816630  0.22113609     0.05800
H272        H  0.05076244  0.14004108  0.10985780     0.05800
C273        C  0.14764227  0.17435400  0.48678685     0.03700
C274        C  0.14241297  0.14032352  0.47238672     0.03700
C275        C  0.10928623  0.13248212  0.45909142    -0.16800
C276        C  0.08156658  0.14356471  0.97820142     0.03700
C277        C  0.08355213  0.17763590  0.99196736     0.03700
C278        C  0.11707773  0.19389487  0.49442253    -0.16800
H279        H  0.11943622  0.22021988  0.50390602     0.05800
H280        H  0.10550450  0.10865388  0.44447685     0.05800
C281        C  0.42507274  0.24697444  0.84175531     0.03700
C282        C  0.39055418  0.23365097  0.83956283     0.03700
C283        C  0.37967307  0.21350295  0.86693417    -0.16800
C284        C  0.38812189  0.22523512  0.90025052     0.03700
C285        C  0.42229313  0.24019809  0.90571850     0.03700
C286        C  0.44168816  0.24850458  0.87536153    -0.16800
H287        H  0.46821786  0.25789118  0.87794519     0.05800
H288        H  0.35568300  0.19891218  0.86281766     0.05800
C289        C  0.23757497  0.33866585  0.92865774     0.03700
C290        C  0.22479084  0.33672174  0.89366904     0.03700
C291        C  0.20546220  0.36479529  0.88140396    -0.16800
C292        C  0.21838342  0.39741583  0.88979043     0.03700
C293        C  0.23007541  0.40243579  0.92486815     0.03700
C294        C  0.23786041  0.37195839  0.94508356    -0.16800
H295        H  0.24575291  0.37425341  0.97214914     0.05800
H296        H  0.19116620  0.36174188  0.85693976     0.05800
C297        C  0.40810642  0.43129084  0.75747981     0.03700
C298        C  0.40916342  0.39666013  0.77024605     0.03700
C299        C  0.38209531  0.38598316  0.79074810    -0.16800
C300        C  0.34866563  0.39571738  0.78010954     0.03700
C301        C  0.34408424  0.43018012  0.76611447     0.03700
C302        C  0.37515613  0.44873820  0.75736071    -0.16800
H303        H  0.37337331  0.47518542  0.74795703     0.05800
H304        H  0.38545307  0.36156844  0.80463459     0.05800
O305        O  0.35827862  0.22530304  0.95623094    -0.77000
C306        C  0.30052795  0.24380642  0.55829509     0.84000
O307        O  0.28132925  0.13150391  0.99154234    -0.78100
O308        O  0.19178435  0.21873207  0.50258894    -0.79600
O309        O  0.26865222  0.28704966  0.92849649    -0.79400
O310        O  0.32709911  0.22946286  0.90782629    -0.78100
Zn311      Zn  0.31938346  0.21094031  0.98851810     1.55700
O312        O  0.23525748  0.29497381  0.97447400    -0.79400
Cd313      Cd  0.27734875  0.23550217  0.92416004     1.59700
Cd314      Cd  0.25676415  0.17006186  0.96167315     1.59600
O315        O  0.24491718  0.21014635  0.88693129    -0.79400
O316        O  0.27356362  0.21673165  0.97084254    -1.89900
Cd317      Cd  0.24174643  0.24579727  0.50107240     1.59900
O318        O  0.25793207  0.15872820  0.90926914    -0.79400
O319        O  0.26834261  0.25116147  0.55143335    -0.78100
C320        C  0.31289600  0.13307261  0.00198220     0.84500
C321        C  0.35670237  0.22711821  0.92325253     0.84100
O322        O  0.31943933  0.23108374  0.53505456    -0.77000
C323        C  0.24868844  0.30586773  0.94607197     0.85000
O324        O  0.32935839  0.16156153  0.99927596    -0.77100
C325        C  0.24570813  0.17715998  0.88420403     0.85100
C326        C  0.18363737  0.18967813  0.48798688     0.85400
O327        O  0.20613386  0.17231805  0.97220509    -0.79500
O328        O  0.35768316  0.25428657  0.78857602    -0.77000
C329        C  0.29964783  0.26213809  0.69170847     0.84000
O330        O  0.29188248  0.36721081  0.78039059    -0.78100
O331        O  0.19600217  0.27825676  0.74298403    -0.79600
O332        O  0.26932746  0.21218620  0.82482907    -0.79400
O333        O  0.33594150  0.26176276  0.84075361    -0.78100
Zn334      Zn  0.32203496  0.28663206  0.76414835     1.55700
O335        O  0.24153482  0.20200801  0.77420275    -0.79400
Cd336      Cd  0.28348047  0.26244470  0.82817133     1.59700
Cd337      Cd  0.25757586  0.32709644  0.78741059     1.59600
O338        O  0.25399739  0.28683996  0.86672916    -0.79400
O339        O  0.27651129  0.28103588  0.78114474    -1.89900
Cd340      Cd  0.24536167  0.25211398  0.74943387     1.59900
O341        O  0.24353148  0.33401788  0.83631447    -0.79400
O342        O  0.26990701  0.24963031  0.69993763    -0.78100
C343        C  0.32446186  0.36505298  0.77665033     0.84500
C344        C  0.36053852  0.25147567  0.82151620     0.84100
O345        O  0.31889655  0.27761823  0.71390224    -0.77000
C346        C  0.25281055  0.19199138  0.80437249     0.85000
O347        O  0.33820258  0.33555092  0.77106065    -0.77100
C348        C  0.24163966  0.31738283  0.86458609     0.85100
C349        C  0.18927084  0.31053841  0.74780207     0.85400
O350        O  0.21153568  0.33043239  0.76189851    -0.79500
O351        O  0.20752585  0.39068828  0.74681711    -0.77000
C352        C  0.30824495  0.44622920  0.76307055     0.84000
O353        O  0.23242452  0.45301478  0.86271055    -0.78100
O354        O  0.24643796  0.05215552  0.77184405    -0.79600
O355        O  0.17408993  0.50507020  0.71638175    -0.79400
O356        O  0.15976265  0.42142599  0.74085997    -0.78100
Zn357      Zn  0.23265256  0.42468153  0.78030909     1.55700
O358        O  0.22723653  0.99715832  0.69701890    -0.79400
Cd359      Cd  0.17229565  0.47087678  0.75715875     1.59700
Cd360      Cd  0.21796830  0.48925805  0.82491126     1.59600
O361        O  0.13486590  0.48056101  0.79318954    -0.79400
O362        O  0.21915035  0.47120993  0.77714098    -1.89900
Cd363      Cd  0.25096614  0.50120396  0.74822038     1.59900
O364        O  0.16645815  0.49798294  0.83862645    -0.79400
O365        O  0.30225966  0.47716317  0.75165685    -0.78100
C366        C  0.22443942  0.42117928  0.85926124     0.84500
C367        C  0.17554131  0.39262437  0.73764866     0.84100
O368        O  0.28329171  0.42772183  0.77344496    -0.77000
C369        C  0.19421309  0.99931345  0.69123581     0.85000
O370        O  0.22216280  0.40810545  0.82885719    -0.77100
C371        C  0.13702668  0.48965969  0.82476295     0.85100
C372        C  0.24623797  0.05808531  0.80475438     0.85400
O373        O  0.24890951  0.03301343  0.82608236    -0.79500
C374        C  0.24339373  0.15783341  0.81953444     0.03700
C375        C  0.23034815  0.15766627  0.85376419     0.03700
C376        C  0.21237044  0.12858380  0.86393552    -0.16800
C377        C  0.22454697  0.09632669  0.85345924     0.03700
C378        C  0.23977498  0.09345207  0.81995044     0.03700
C379        C  0.24622270  0.12531456  0.80177244    -0.16800
H380        H  0.25617247  0.12473010  0.77569906     0.05800
H381        H  0.19818561  0.13038478  0.88800922     0.05800
O382        O  0.19845457  0.11014575  0.98049841    -0.77000
C383        C  0.30007403  0.05088804  0.49585722     0.84000
O384        O  0.21559005  0.03977047  0.87993537    -0.78100
O385        O  0.24339698  0.44626190  0.96912422    -0.79600
O386        O  0.17145203  0.02563456  0.54007219    -0.79400
O387        O  0.15002717  0.07946608  0.97664944    -0.78100
Zn388      Zn  0.23015191  0.07180368  0.96247290     1.55700
O389        O  0.21547805  0.48838326  0.54644304    -0.79400
Cd390      Cd  0.16689836  0.03063304  0.98803553     1.59700
Cd391      Cd  0.19970430  0.01165619  0.92240705     1.59600
O392        O  0.13191707  0.99491384  0.96478688    -0.79400
O393        O  0.21298970  0.02704326  0.96865514    -1.89900
Cd394      Cd  0.24228433  0.99435350  0.99764485     1.59900
O395        O  0.14817391  0.52086840  0.91733552    -0.79400
O396        O  0.29272416  0.01929893  0.50394264    -0.78100
C397        C  0.22557084  0.07096458  0.88283746     0.84500
C398        C  0.16540737  0.10882376  0.97683078     0.84100
O399        O  0.27763834  0.07011158  0.98103699    -0.77000
C400        C  0.18837057  0.50378959  0.55820304     0.85000
O401        O  0.23260208  0.08351016  0.91266700    -0.77100
C402        C  0.12718315  0.00113300  0.93257956     0.85100
C403        C  0.22836884  0.43810694  0.94000194     0.85400
O404        O  0.21047562  0.46005076  0.92238109    -0.79500
C405        C  0.33283216  0.10311620  0.01811640     0.03700
C406        C  0.33364986  0.06824567  0.00583018     0.03700
C407        C  0.36692008  0.05146948  0.50474841    -0.16800
C408        C  0.39819791  0.07072200  0.51242453     0.03700
C409        C  0.39413933  0.10497167  0.52646422     0.03700
C410        C  0.36128895  0.11402923  0.53789469    -0.16800
H411        H  0.35864673  0.13806367  0.55228425     0.05800
H412        H  0.36853563  0.02489283  0.49593781     0.05800
C413        C  0.07116333  0.49678615  0.84306281     0.03700
C414        C  0.10662702  0.48585856  0.84856035     0.03700
C415        C  0.11572725  0.47157012  0.88062844    -0.16800
C416        C  0.10036763  0.98467303  0.90991119     0.03700
C417        C  0.06572741  0.99733177  0.90704362     0.03700
C418        C  0.05032338  0.50107380  0.87313549    -0.16800
H419        H  0.02327583  0.50867412  0.87023623     0.05800
H420        H  0.14134662  0.45980823  0.88390069     0.05800
C421        C  0.01282922  0.41120334  0.60312675     0.03700
C422        C  0.99905663  0.41236430  0.56859111     0.03700
C423        C  0.49282790  0.37994313  0.55132390    -0.16800
C424        C  0.49328878  0.34813626  0.57078652     0.03700
C425        C  0.50233833  0.35007129  0.60696089     0.03700
C426        C  0.51968158  0.37942921  0.61846166    -0.16800
H427        H  0.53118701  0.37894333  0.64422908     0.05800
H428        H  0.48492616  0.37968914  0.52415625     0.05800
C429        C  0.15533908  0.32666667  0.73692192     0.03700
C430        C  0.15365927  0.36207810  0.72484058     0.03700
C431        C  0.12259575  0.37249502  0.70857611    -0.16800
C432        C  0.09131246  0.35828290  0.71899644     0.03700
C433        C  0.09073628  0.32424383  0.73319594     0.03700
C434        C  0.12335556  0.30756493  0.73953045    -0.16800
H435        H  0.12379689  0.28101605  0.74881047     0.05800
H436        H  0.12167556  0.39750319  0.69575948     0.05800
C437        C  0.31726437  0.24576780  0.59407544     0.03700
C438        C  0.35166078  0.23179911  0.59969425     0.03700
C439        C  0.35998870  0.21982319  0.63294774    -0.16800
C440        C  0.35042761  0.24094541  0.65977266     0.03700
C441        C  0.31609345  0.25435206  0.65800156     0.03700
C442        C  0.29841395  0.25453959  0.62470579    -0.16800
H443        H  0.27145721  0.26261186  0.62258702     0.05800
H444        H  0.38331892  0.20434081  0.63720612     0.05800
O445        O  0.38179716  0.26368783  0.71066785    -0.77000
C446        C  0.44199658  0.25716064  0.80870983     0.84000
O447        O  0.45915036  0.36670661  0.74719751    -0.78100
O448        O  0.04934571  0.27841092  0.75159345    -0.79600
O449        O  0.47663000  0.21762608  0.67575465    -0.79400
O450        O  0.40792416  0.26285263  0.66000508    -0.78100
Zn451      Zn  0.41937507  0.28967889  0.73895637     1.55700
O452        O  0.00234494  0.20483516  0.72656975    -0.79400
Cd453      Cd  0.45957795  0.26694402  0.67384805     1.59700
Cd454      Cd  0.48048688  0.33042971  0.71433824     1.59600
O455        O  0.48749128  0.29601503  0.63708993    -0.79400
O456        O  0.46436740  0.28359909  0.72140260    -1.89900
Cd457      Cd  0.49798892  0.25433347  0.75162327     1.59900
O458        O  0.47767316  0.34599272  0.66280606    -0.79400
O459        O  0.47384928  0.24983211  0.80182581    -0.78100
C460        C  0.42677394  0.36691905  0.75304102     0.84500
C461        C  0.38110085  0.25729063  0.67823364     0.84100
O462        O  0.42198063  0.27106484  0.78613063    -0.77000
C463        C  0.99286550  0.19656734  0.69545598     0.85000
O464        O  0.40801429  0.34039016  0.74557407    -0.77100
C465        C  0.48785177  0.32904152  0.63642164     0.85100
C466        C  0.05549889  0.30782398  0.73721026     0.85400
O467        O  0.03080773  0.32547776  0.72422736    -0.79500
O468        O  0.03998019  0.39150850  0.70282489    -0.77000
C469        C  0.44092285  0.44771050  0.74499212     0.84000
O470        O  0.03707046  0.46097354  0.63255688    -0.78100
O471        O  0.49644212  0.05602515  0.72106492    -0.79600
O472        O  0.07249812  0.47700398  0.78636125    -0.79400
O473        O  0.06858300  0.40434004  0.75102685    -0.78100
Zn474      Zn  0.00456382  0.43237979  0.70146719     1.55700
O475        O  0.02597579  0.00868028  0.79794084    -0.79400
Cd476      Cd  0.07022758  0.45545853  0.73978778     1.59700
Cd477      Cd  0.04438185  0.49428011  0.67528058     1.59600
O478        O  0.11276147  0.45892791  0.70675456    -0.79400
O479        O  0.02745811  0.47297766  0.71752919    -1.89900
Cd480      Cd  0.49915227  0.50549604  0.74752043     1.59900
O481        O  0.09581271  0.50539491  0.67806628    -0.79400
O482        O  0.44960751  0.47908410  0.75307846    -0.78100
C483        C  0.51204531  0.43954774  0.62899684     0.84500
C484        C  0.06397358  0.38472831  0.72521661     0.84100
O485        O  0.46085833  0.42846811  0.72748355    -0.77000
C486        C  0.05550190  0.99524984  0.80714289     0.85000
O487        O  0.48921693  0.43715899  0.65211316    -0.77100
C488        C  0.11757558  0.48140414  0.68323942     0.85100
C489        C  0.50882658  0.06398300  0.69116736     0.85400
O490        O  0.02499058  0.04179518  0.67381334    -0.79500
O491        O  0.45063370  0.13519700  0.52945926    -0.77000
C492        C  0.05062847  0.19443741  0.00264366     0.84000
O493        O  0.49644949  0.21845018  0.61542789    -0.78100
O494        O  0.99793735  0.30335908  0.52591694    -0.79600
O495        O  0.41990933  0.22798312  0.96490854    -0.79400
O496        O  0.40330305  0.16497376  0.51711024    -0.78100
Zn497      Zn  0.48355482  0.17584587  0.53920383     1.55700
O498        O  0.46825161  0.25450053  0.94951187    -0.79400
Cd499      Cd  0.41877313  0.21560709  0.51507222     1.59700
Cd500      Cd  0.46261880  0.24080580  0.57792526     1.59600
O501        O  0.38151285  0.23996674  0.54446842    -0.79400
O502        O  0.46651931  0.22144285  0.53178736    -1.89900
Cd503      Cd  0.49447214  0.25289564  0.00036901     1.59900
O504        O  0.41272873  0.23155075  0.59228149    -0.79400
O505        O  0.04379606  0.22659117  0.99630429    -0.78100
C506        C  0.50246068  0.18602360  0.61518548     0.84500
C507        C  0.41799133  0.13605001  0.52345566     0.84100
O508        O  0.02859392  0.17452381  0.51666674    -0.77000
C509        C  0.43798485  0.24186851  0.94179411     0.85000
O510        O  0.49556380  0.16862275  0.58803438    -0.77100
C511        C  0.38303066  0.23461129  0.57702374     0.85100
C512        C  0.48564089  0.31332760  0.55519949     0.85400
O513        O  0.46926905  0.29262069  0.57453186    -0.79500
C514        C  0.17728330  0.49134018  0.65657677     0.03700
C515        C  0.14345621  0.47650172  0.65599052     0.03700
C516        C  0.12775521  0.46711180  0.62451691    -0.18400
C517        C  0.13736218  0.98378394  0.59405320     0.03700
C518        C  0.17317107  0.99456195  0.59227574     0.03700
C519        C  0.19334223  0.49687782  0.62396835    -0.16800
H520        H  0.21996490  0.50616512  0.62335155     0.05800
H521        H  0.10246672  0.45460285  0.62532445     0.05800
O522        O  0.03078075  0.11138670  0.49705949    -0.77000
C523        C  0.43403375  0.05543988  0.00974885     0.84000
O524        O  0.01599398  0.04830437  0.61241926    -0.78100
O525        O  0.49465676  0.45223147  0.51924446    -0.79600
O526        O  0.06860251  0.02011129  0.96301381    -0.79400
O527        O  0.08327203  0.08979079  0.00778838    -0.78100
Zn528      Zn  0.00841298  0.07780401  0.53109713     1.55700
O529        O  0.01637325  0.50030131  0.94597060    -0.79400
Cd530      Cd  0.07156651  0.03774551  0.51218111     1.59700
Cd531      Cd  0.02605737  0.01231560  0.57388111     1.59600
O532        O  0.10973275  0.01145709  0.54255110    -0.79400
O533        O  0.02410976  0.03213084  0.52722732    -1.89900
Cd534      Cd  0.49236858  0.00267047  0.99578073     1.59900
O535        O  0.07627781  0.49430015  0.58507123    -0.79400
O536        O  0.44071171  0.02571538  0.99631865    -0.78100
C537        C  0.01838418  0.08106781  0.60990651     0.84500
C538        C  0.06376949  0.11402616  0.49575395     0.84100
O539        O  0.45842232  0.07362676  0.52263760    -0.77000
C540        C  0.04846604  0.50711424  0.93989297     0.85000
O541        O  0.51761680  0.09522543  0.57986009    -0.77100
C542        C  0.10647912  0.99648603  0.57183837     0.85100
C543        C  0.49345266  0.44719670  0.55209495     0.85400
O544        O  0.99025036  0.47290998  0.57234701    -0.79500
C545        C  0.50380854  0.16374746  0.67873528     0.03700
C546        C  0.51808107  0.16576629  0.64498009     0.03700
C547        C  0.03614181  0.13706784  0.63351921    -0.16800
C548        C  0.02239329  0.10460393  0.64116117     0.03700
C549        C  0.00848248  0.09971772  0.67527566     0.03700
C550        C  0.00131747  0.13034272  0.69482519    -0.16800
H551        H  0.99219633  0.12816448  0.72114366     0.05800
H552        H  0.05076979  0.14004944  0.60985227     0.05800
C553        C  0.14763228  0.17436120  0.98676443     0.03700
C554        C  0.14241887  0.14032905  0.97236275     0.03700
C555        C  0.10929817  0.13247356  0.95906034    -0.16800
C556        C  0.08156319  0.14358014  0.47824008     0.03700
C557        C  0.08356462  0.17764449  0.49201849     0.03700
C558        C  0.11705967  0.19389540  0.99438145    -0.16800
H559        H  0.11940754  0.22022169  0.00386368     0.05800
H560        H  0.10553049  0.10863971  0.94445141     0.05800
C561        C  0.42507828  0.74699950  0.34175972     0.03700
C562        C  0.39056517  0.73366359  0.33957208     0.03700
C563        C  0.37970040  0.71350629  0.36694333    -0.16800
C564        C  0.38814844  0.72523998  0.40025935     0.03700
C565        C  0.42231294  0.74021903  0.40572505     0.03700
C566        C  0.44169988  0.74853417  0.37536427    -0.16800
H567        H  0.46822676  0.75792970  0.37794354     0.05800
H568        H  0.35571679  0.69890422  0.36283023     0.05800
C569        C  0.23763686  0.83866601  0.42868766     0.03700
C570        C  0.22484694  0.83671986  0.39370168     0.03700
C571        C  0.20552072  0.86479346  0.38143623    -0.16800
C572        C  0.21845394  0.89741135  0.38980992     0.03700
C573        C  0.23014896  0.90243621  0.42488590     0.03700
C574        C  0.23793082  0.87196139  0.44510812    -0.16800
H575        H  0.24582334  0.87425982  0.47217342     0.05800
H576        H  0.19121690  0.86173647  0.35697698     0.05800
C577        C  0.40808512  0.93129444  0.25745627     0.03700
C578        C  0.40913881  0.89666213  0.27021790     0.03700
C579        C  0.38207176  0.88598572  0.29071982    -0.16800
C580        C  0.34864396  0.89572467  0.28008255     0.03700
C581        C  0.34406529  0.93019063  0.26609687     0.03700
C582        C  0.37513816  0.94874735  0.25734541    -0.16800
H583        H  0.37335827  0.97519738  0.24794929     0.05800
H584        H  0.38542766  0.86156941  0.30460402     0.05800
O585        O  0.35829997  0.72528177  0.45623632    -0.77000
C586        C  0.30049919  0.74384651  0.05828221     0.84000
O587        O  0.28133022  0.63150026  0.49151916    -0.78100
O588        O  0.19175494  0.71875342  0.00258221    -0.79600
O589        O  0.26869473  0.78704348  0.42851569    -0.79400
O590        O  0.32712676  0.72946760  0.40783086    -0.78100
Zn591      Zn  0.31940148  0.71092619  0.48851739     1.55700
O592        O  0.23530708  0.79496804  0.47449937    -0.79400
Cd593      Cd  0.27737697  0.73549894  0.42416152     1.59700
Cd594      Cd  0.25677069  0.67005720  0.46164946     1.59600
O595        O  0.24494335  0.71016013  0.38692063    -0.79400
O596        O  0.27358312  0.71671931  0.47083915    -1.89900
Cd597      Cd  0.24171634  0.74581661  0.00106433     1.59900
O598        O  0.25796083  0.65873640  0.40924108    -0.79400
O599        O  0.26831278  0.75120124  0.05142418    -0.78100
C600        C  0.31289681  0.63306710  0.50195936     0.84500
C601        C  0.35672777  0.72711505  0.42325917     0.84100
O602        O  0.31940566  0.73111762  0.03504225    -0.77000
C603        C  0.24874173  0.80586459  0.44609953     0.85000
O604        O  0.32936322  0.66155229  0.49925363    -0.77100
C605        C  0.24573136  0.67717448  0.38418325     0.85100
C606        C  0.18362292  0.68969255  0.98798775     0.85400
O607        O  0.20613458  0.67230415  0.47218143    -0.79500
O608        O  0.35769517  0.75431299  0.28858712    -0.77000
C609        C  0.29963670  0.76214309  0.19169894     0.84000
O610        O  0.29186189  0.86722014  0.28037870    -0.78100
O611        O  0.19598688  0.77827992  0.24298783    -0.79600
O612        O  0.26930259  0.71219778  0.32479879    -0.79400
O613        O  0.33592641  0.76172494  0.34076117    -0.78100
Zn614      Zn  0.32203146  0.78663494  0.26414445     1.55700
O615        O  0.24152317  0.70201548  0.27416765    -0.79400
Cd616      Cd  0.28347315  0.76244203  0.32816452     1.59700
Cd617      Cd  0.25756992  0.82710286  0.28742814     1.59600
O618        O  0.25401135  0.78682318  0.36674482    -0.79400
O619        O  0.27650575  0.78104443  0.28113964    -1.89900
Cd620      Cd  0.24534733  0.75213445  0.24941837     1.59900
O621        O  0.24358864  0.83402180  0.33634979    -0.79400
O622        O  0.26987786  0.74966788  0.19991215    -0.78100
C623        C  0.32443880  0.86506311  0.27662173     0.84500
C624        C  0.36053884  0.75147384  0.32152572     0.84100
O625        O  0.31889548  0.77758831  0.21390790    -0.77000
C626        C  0.25279346  0.69200080  0.30434037     0.85000
O627        O  0.33817891  0.83556212  0.27102537    -0.77100
C628        C  0.24168647  0.81737926  0.36461588     0.85100
C629        C  0.18924265  0.81055285  0.24784404     0.85400
O630        O  0.21149874  0.83044015  0.26196578    -0.79500
O631        O  0.20750191  0.89069115  0.24683513    -0.77000
C632        C  0.30822832  0.94624254  0.26306261     0.84000
O633        O  0.23248847  0.95300653  0.36271531    -0.78100
O634        O  0.24641024  0.55216070  0.27184727    -0.79600
O635        O  0.17407941  0.00507271  0.21639967    -0.79400
O636        O  0.15973949  0.92143366  0.24088866    -0.78100
Zn637      Zn  0.23264320  0.92468178  0.28031770     1.55700
O638        O  0.22722244  0.49715217  0.19703467    -0.79400
Cd639      Cd  0.17228403  0.97088381  0.25717897     1.59700
Cd640      Cd  0.21796938  0.98924481  0.32493370     1.59600
O641        O  0.13485285  0.98057853  0.29320002    -0.79400
O642        O  0.21913914  0.97120949  0.27716012    -1.89900
Cd643      Cd  0.25094701  0.00120807  0.24823483     1.59900
O644        O  0.16645018  0.99789997  0.33867364    -0.79400
O645        O  0.30224403  0.97718220  0.25166605    -0.78100
C646        C  0.22449262  0.92117263  0.35927433     0.84500
C647        C  0.17551530  0.89263076  0.23767566     0.84100
O648        O  0.28327553  0.92773123  0.27343009    -0.77000
C649        C  0.19419946  0.49930891  0.19125318     0.85000
O650        O  0.22218619  0.90809934  0.32887168    -0.77100
C651        C  0.13701508  0.98961858  0.32478984     0.85100
C652        C  0.24620776  0.55809513  0.30475623     0.85400
O653        O  0.24887872  0.53302711  0.32608885    -0.79500
C654        C  0.24337881  0.65784591  0.31951082     0.03700
C655        C  0.23034972  0.65768785  0.35374783     0.03700
C656        C  0.21236464  0.62861427  0.36392937    -0.16800
C657        C  0.22452918  0.59635093  0.35345884     0.03700
C658        C  0.23974936  0.59346552  0.31994576     0.03700
C659        C  0.24619653  0.62532221  0.30175634    -0.16800
H660        H  0.25613756  0.62472923  0.27567969     0.05800
H661        H  0.19818515  0.63042677  0.38800521     0.05800
O662        O  0.19844146  0.61013235  0.48055465    -0.77000
C663        C  0.30006697  0.55088700  0.99588037     0.84000
O664        O  0.21559150  0.53978776  0.37993409    -0.78100
O665        O  0.24343501  0.94626466  0.46914589    -0.79600
O666        O  0.17145137  0.52563644  0.04010535    -0.79400
O667        O  0.15002071  0.57945289  0.47660161    -0.78100
Zn668      Zn  0.23013662  0.57180804  0.46247954     1.55700
O669        O  0.21545542  0.98835610  0.04644866    -0.79400
Cd670      Cd  0.16689436  0.53061986  0.48800188     1.59700
Cd671      Cd  0.19972568  0.51164090  0.42239127     1.59600
O672        O  0.13191708  0.49488506  0.46476983    -0.79400
O673        O  0.21298962  0.52703838  0.46863924    -1.89900
Cd674      Cd  0.24229912  0.49436461  0.49763862     1.59900
O675        O  0.14818447  0.02077130  0.41728201    -0.79400
O676        O  0.29271046  0.51929665  0.00396117    -0.78100
C677        C  0.22554400  0.57099059  0.38284123     0.84500
C678        C  0.16539839  0.60881279  0.47683662     0.84100
O679        O  0.27763647  0.57010925  0.48102177    -0.77000
C680        C  0.18835843  0.00377136  0.05822177     0.85000
O681        O  0.23255701  0.58353748  0.41267460    -0.77100
C682        C  0.12718465  0.50106806  0.43255546     0.85100
C683        C  0.22843195  0.93810769  0.44001332     0.85400
O684        O  0.21054956  0.96004868  0.42237871    -0.79500
C685        C  0.33282906  0.60311469  0.51809835     0.03700
C686        C  0.33365586  0.56825024  0.50580189     0.03700
C687        C  0.36691053  0.55145723  0.00477619    -0.16800
C688        C  0.39819356  0.57070279  0.01244682     0.03700
C689        C  0.39414494  0.60495168  0.02649208     0.03700
C690        C  0.36129456  0.61402609  0.03791171    -0.16800
H691        H  0.35865929  0.63806484  0.05229571     0.05800
H692        H  0.36851946  0.52488054  0.99596434     0.05800
C693        C  0.07115067  0.99676681  0.34306735     0.03700
C694        C  0.10660297  0.98580451  0.34856896     0.03700
C695        C  0.11567627  0.97147981  0.38062878    -0.16800
C696        C  0.10034354  0.48461189  0.40991370     0.03700
C697        C  0.06572032  0.49731533  0.40704695     0.03700
C698        C  0.05031577  0.00107248  0.37314012    -0.16800
H699        H  0.02327626  0.00870126  0.37024257     0.05800
H700        H  0.14128099  0.95968566  0.38389699     0.05800
C701        C  0.01285897  0.91120492  0.10312300     0.03700
C702        C  0.99909332  0.91236194  0.06858434     0.03700
C703        C  0.49287274  0.87994037  0.05131601    -0.16800
C704        C  0.49332841  0.84813396  0.07077816     0.03700
C705        C  0.50236399  0.85007078  0.10695704     0.03700
C706        C  0.51970328  0.87943062  0.11846159    -0.16800
H707        H  0.53120209  0.87894558  0.14423239     0.05800
H708        H  0.48497556  0.87968617  0.02414689     0.05800
C709        C  0.15530944  0.82667925  0.23696730     0.03700
C710        C  0.15362989  0.86208598  0.22487604     0.03700
C711        C  0.12256836  0.87250044  0.20860624    -0.16800
C712        C  0.09128376  0.85828705  0.21901991     0.03700
C713        C  0.09070894  0.82425184  0.23322825     0.03700
C714        C  0.12332746  0.80757673  0.23957535    -0.16800
H715        H  0.12376909  0.78102988  0.24886100     0.05800
H716        H  0.12165042  0.89750433  0.19578296     0.05800
C717        C  0.31724324  0.74580442  0.09405881     0.03700
C718        C  0.35163828  0.73182765  0.09966865     0.03700
C719        C  0.35996961  0.71984111  0.13291736    -0.16800
C720        C  0.35041494  0.74095477  0.15975129     0.03700
C721        C  0.31608117  0.75436577  0.15798873     0.03700
C722        C  0.29839856  0.75456876  0.12469453    -0.16800
H723        H  0.27144256  0.76264460  0.12258181     0.05800
H724        H  0.38329856  0.70435423  0.13716584     0.05800
O725        O  0.38179098  0.76368097  0.21065193    -0.77000
C726        C  0.44199535  0.75717818  0.30870920     0.84000
O727        O  0.45912861  0.86670863  0.24718162    -0.78100
O728        O  0.04932534  0.77841004  0.25160716    -0.79600
O729        O  0.47661811  0.71762899  0.17576066    -0.79400
O730        O  0.40791819  0.76285026  0.15998940    -0.78100
Zn731      Zn  0.41936307  0.78967945  0.23894424     1.55700
O732        O  0.00233795  0.70483483  0.22657105    -0.79400
Cd733      Cd  0.45957112  0.76694639  0.17383874     1.59700
Cd734      Cd  0.48047108  0.83043086  0.21433111     1.59600
O735        O  0.48749728  0.79601471  0.13708313    -0.79400
O736        O  0.46435467  0.78359995  0.22139324    -1.89900
Cd737      Cd  0.49797435  0.75433367  0.25161951     1.59900
O738        O  0.47768539  0.84599433  0.16279751    -0.79400
O739        O  0.47384376  0.74983957  0.30182132    -0.78100
C740        C  0.42675077  0.86692165  0.25301515     0.84500
C741        C  0.38109355  0.75728843  0.17821647     0.84100
O742        O  0.42197814  0.77108067  0.28612919    -0.77000
C743        C  0.99285507  0.69656920  0.19545795     0.85000
O744        O  0.40799261  0.84039282  0.24554331    -0.77100
C745        C  0.48786676  0.82904156  0.13641507     0.85100
C746        C  0.05547483  0.80782731  0.23723327     0.85400
O747        O  0.03078363  0.82547786  0.22424698    -0.79500
O748        O  0.03995929  0.89151286  0.20282002    -0.77000
C749        C  0.44090224  0.94771213  0.24497057     0.84000
O750        O  0.03709347  0.96097565  0.13256396    -0.78100
O751        O  0.49641799  0.55602425  0.22105547    -0.79600
O752        O  0.07248587  0.97699723  0.28636089    -0.79400
O753        O  0.06852997  0.90433864  0.25104012    -0.78100
Zn754      Zn  0.00454573  0.93238726  0.20144979     1.55700
O755        O  0.02596327  0.50867203  0.29794249    -0.79400
Cd756      Cd  0.07019735  0.95545273  0.23979065     1.59700
Cd757      Cd  0.04438324  0.99429229  0.17528776     1.59600
O758        O  0.11273115  0.95891092  0.20676061    -0.79400
O759        O  0.02743736  0.97298326  0.21752460    -1.89900
Cd760      Cd  0.49913509  0.00549725  0.24751788     1.59900
O761        O  0.09581436  0.00541684  0.17812214    -0.79400
O762        O  0.44959194  0.97908158  0.25306788    -0.78100
C763        C  0.51206596  0.93955381  0.12898969     0.84500
C764        C  0.06393861  0.88472991  0.22522565     0.84100
O765        O  0.46083369  0.92847183  0.22745500    -0.77000
C766        C  0.05548978  0.49524041  0.30714460     0.85000
O767        O  0.48922074  0.93717510  0.15209032    -0.77100
C768        C  0.11756212  0.98140761  0.18326955     0.85100
C769        C  0.50880124  0.56398497  0.19115760     0.85400
O770        O  0.02497478  0.54180213  0.17380479    -0.79500
O771        O  0.45063987  0.63517781  0.02951789    -0.77000
C772        C  0.05064332  0.69445124  0.50269510     0.84000
O773        O  0.49640645  0.71845654  0.11544564    -0.78100
O774        O  0.99795571  0.80335569  0.02590192    -0.79600
O775        O  0.41992019  0.72803387  0.46492293    -0.79400
O776        O  0.40331913  0.66494080  0.01709448    -0.78100
Zn777      Zn  0.48356715  0.67584240  0.03919196     1.55700
O778        O  0.46828158  0.75450686  0.44951601    -0.79400
Cd779      Cd  0.41877332  0.71557360  0.01505809     1.59700
Cd780      Cd  0.46260758  0.74081920  0.07791757     1.59600
O781        O  0.38148777  0.73992331  0.04443029    -0.79400
O782        O  0.46651593  0.72143788  0.03178252    -1.89900
Cd783      Cd  0.49448161  0.75290184  0.50038353     1.59900
O784        O  0.41270569  0.73161787  0.09226241    -0.79400
O785        O  0.04381083  0.72660279  0.49634399    -0.78100
C786        C  0.50247122  0.68604061  0.11518026     0.84500
C787        C  0.41800290  0.63602395  0.02347846     0.84100
O788        O  0.02858334  0.67450799  0.01661729    -0.77000
C789        C  0.43800492  0.74189686  0.44180217     0.85000
O790        O  0.49562782  0.66865718  0.08800684    -0.77100
C791        C  0.38300756  0.73463376  0.07699587     0.85100
C792        C  0.48567095  0.81332747  0.05518882     0.85400
O793        O  0.46929566  0.79262581  0.07452204    -0.79500
C794        C  0.17726722  0.99133231  0.15659619     0.03700
C795        C  0.14343459  0.97650711  0.15601302     0.03700
C796        C  0.12772836  0.96712004  0.12454181    -0.18400
C797        C  0.13734528  0.48377645  0.09407291     0.03700
C798        C  0.17315885  0.49453825  0.09229355     0.03700
C799        C  0.19332935  0.99685464  0.12398669    -0.16800
H800        H  0.21995491  0.00613341  0.12336877     0.05800
H801        H  0.10243674  0.95461967  0.12535116     0.05800
O802        O  0.03078838  0.61137602  0.99704112    -0.77000
C803        C  0.43403993  0.55546077  0.50974601     0.84000
O804        O  0.01595270  0.54831064  0.11240992    -0.78100
O805        O  0.49468361  0.95222530  0.01923750    -0.79600
O806        O  0.06861874  0.52013752  0.46300138    -0.79400
O807        O  0.08326380  0.58981236  0.50782953    -0.78100
Zn808      Zn  0.00841083  0.57780234  0.03108101     1.55700
O809        O  0.01638734  0.00029877  0.44598740    -0.79400
Cd810      Cd  0.07156636  0.53772674  0.01218250     1.59700
Cd811      Cd  0.02604425  0.51232224  0.07388032     1.59600
O812        O  0.10972974  0.51142633  0.04255017    -0.79400
O813        O  0.02410611  0.53212852  0.02722314    -1.89900
Cd814      Cd  0.49237048  0.50267930  0.49578596     1.59900
O815        O  0.07626787  0.99432299  0.08508584    -0.79400
O816        O  0.44072445  0.52574509  0.49630019    -0.78100
C817        C  0.01834922  0.58107341  0.10989592     0.84500
C818        C  0.06377678  0.61400840  0.99571938     0.84100
O819        O  0.45842367  0.57361383  0.02261296    -0.77000
C820        C  0.04847479  0.00712195  0.43989526     0.85000
O821        O  0.51759475  0.59523021  0.07984846    -0.77100
C822        C  0.10646954  0.49648118  0.07184990     0.85100
C823        C  0.49347654  0.94719106  0.05208770     0.85400
O824        O  0.99025440  0.97290273  0.07233811    -0.79500
C825        C  0.50379374  0.66375107  0.17873256     0.03700
C826        C  0.51807293  0.66577051  0.14497873     0.03700
C827        C  0.03612459  0.63706504  0.13351912    -0.16800
C828        C  0.02235780  0.60460724  0.14115177     0.03700
C829        C  0.00844780  0.59971984  0.17526559     0.03700
C830        C  0.00129006  0.63034481  0.19481787    -0.16800
H831        H  0.99216827  0.62816629  0.22113610     0.05800
H832        H  0.05076257  0.64004114  0.10985782     0.05800
C833        C  0.14764228  0.67435400  0.48678686     0.03700
C834        C  0.14241300  0.64032351  0.47238674     0.03700
C835        C  0.10928626  0.63248213  0.45909143    -0.16800
C836        C  0.08156660  0.64356472  0.97820141     0.03700
C837        C  0.08355217  0.67763592  0.99196734     0.03700
C838        C  0.11707775  0.69389489  0.49442253    -0.16800
H839        H  0.11943626  0.72021993  0.50390597     0.05800
H840        H  0.10550454  0.60865388  0.44447685     0.05800
C841        C  0.42507276  0.74697452  0.84175532     0.03700
C842        C  0.39055420  0.73365106  0.83956284     0.03700
C843        C  0.37967308  0.71350305  0.86693417    -0.16800
C844        C  0.38812191  0.72523520  0.90025053     0.03700
C845        C  0.42229316  0.74019817  0.90571850     0.03700
C846        C  0.44168819  0.74850464  0.87536153    -0.16800
H847        H  0.46821790  0.75789124  0.87794518     0.05800
H848        H  0.35568298  0.69891232  0.86281767     0.05800
C849        C  0.23757489  0.83866581  0.92865779     0.03700
C850        C  0.22479085  0.83672178  0.89366905     0.03700
C851        C  0.20546224  0.86479534  0.88140400    -0.16800
C852        C  0.21838350  0.89741585  0.88979048     0.03700
C853        C  0.23007545  0.90243578  0.92486824     0.03700
C854        C  0.23786033  0.87195834  0.94508365    -0.16800
H855        H  0.24575276  0.87425330  0.97214928     0.05800
H856        H  0.19116624  0.86174197  0.85693981     0.05800
C857        C  0.40810648  0.93129088  0.75747985     0.03700
C858        C  0.40916349  0.89666016  0.77024605     0.03700
C859        C  0.38209540  0.88598318  0.79074810    -0.16800
C860        C  0.34866571  0.89571743  0.78010954     0.03700
C861        C  0.34408431  0.93018016  0.76611449     0.03700
C862        C  0.37515620  0.94873825  0.75736077    -0.16800
H863        H  0.37337340  0.97518548  0.74795712     0.05800
H864        H  0.38545315  0.86156847  0.80463458     0.05800
O865        O  0.35827864  0.72530312  0.95623095    -0.77000
C866        C  0.30052792  0.74380644  0.55829510     0.84000
O867        O  0.28132917  0.63150392  0.99154237    -0.78100
O868        O  0.19178430  0.71873210  0.50258888    -0.79600
O869        O  0.26865217  0.78704960  0.92849644    -0.79400
O870        O  0.32709911  0.72946292  0.90782630    -0.78100
Zn871      Zn  0.31938343  0.71094033  0.98851805     1.55700
O872        O  0.23525755  0.79497374  0.97447404    -0.79400
Cd873      Cd  0.27734868  0.73550211  0.92415999     1.59700
Cd874      Cd  0.25676418  0.67006180  0.96167298     1.59600
O875        O  0.24491705  0.71014633  0.88693128    -0.79400
O876        O  0.27356360  0.71673161  0.97084245    -1.89900
Cd877      Cd  0.24174638  0.74579730  0.50107239     1.59900
O878        O  0.25793223  0.65872817  0.90926894    -0.79400
O879        O  0.26834258  0.75116157  0.55143335    -0.78100
C880        C  0.31289597  0.63307259  0.00198210     0.84500
C881        C  0.35670238  0.72711829  0.92325254     0.84100
O882        O  0.31943925  0.73108367  0.53505458    -0.77000
C883        C  0.24868842  0.80586766  0.94607197     0.85000
O884        O  0.32935838  0.66156149  0.99927575    -0.77100
C885        C  0.24570811  0.67715998  0.88420393     0.85100
C886        C  0.18363735  0.68967812  0.48798690     0.85400
O887        O  0.20613385  0.67231810  0.97220504    -0.79500
O888        O  0.35768324  0.75428668  0.78857602    -0.77000
C889        C  0.29964791  0.76213799  0.69170844     0.84000
O890        O  0.29188258  0.86721081  0.78039064    -0.78100
O891        O  0.19600227  0.77825674  0.74298406    -0.79600
O892        O  0.26932751  0.71218623  0.82482908    -0.79400
O893        O  0.33594152  0.76176281  0.84075360    -0.78100
Zn894      Zn  0.32203507  0.78663211  0.76414828     1.55700
O895        O  0.24153495  0.70200794  0.77420273    -0.79400
Cd896      Cd  0.28348054  0.76244476  0.82817133     1.59700
Cd897      Cd  0.25757596  0.82709635  0.78741059     1.59600
O898        O  0.25399748  0.78684005  0.86672914    -0.79400
O899        O  0.27651141  0.78103579  0.78114471    -1.89900
Cd900      Cd  0.24536177  0.75211388  0.74943386     1.59900
O901        O  0.24353138  0.83401789  0.83631441    -0.79400
O902        O  0.26990707  0.74963028  0.69993761    -0.78100
C903        C  0.32446195  0.86505304  0.77665026     0.84500
C904        C  0.36053856  0.75147575  0.82151620     0.84100
O905        O  0.31889668  0.77761812  0.71390219    -0.77000
C906        C  0.25281062  0.69199137  0.80437250     0.85000
O907        O  0.33820269  0.83555101  0.77106046    -0.77100
C908        C  0.24163964  0.81738288  0.86458607     0.85100
C909        C  0.18927094  0.81053840  0.74780206     0.85400
O910        O  0.21153581  0.83043238  0.76189848    -0.79500
O911        O  0.20752584  0.89068826  0.74681710    -0.77000
C912        C  0.30824501  0.94622924  0.76307061     0.84000
O913        O  0.23242436  0.95301484  0.86271059    -0.78100
O914        O  0.24643808  0.55215551  0.77184405    -0.79600
O915        O  0.17409004  0.00507033  0.71638175    -0.79400
O916        O  0.15976268  0.92142602  0.74085996    -0.78100
Zn917      Zn  0.23265263  0.92468142  0.78030910     1.55700
O918        O  0.22723646  0.49715829  0.69701893    -0.79400
Cd919      Cd  0.17229570  0.97087682  0.75715875     1.59700
Cd920      Cd  0.21796822  0.98925810  0.82491129     1.59600
O921        O  0.13486600  0.98056085  0.79318963    -0.79400
O922        O  0.21915033  0.97120982  0.77714106    -1.89900
Cd923      Cd  0.25096607  0.00120393  0.74822045     1.59900
O924        O  0.16645813  0.99798310  0.83862650    -0.79400
O925        O  0.30225968  0.97716324  0.75165702    -0.78100
C926        C  0.22443940  0.92117930  0.85926127     0.84500
C927        C  0.17554131  0.89262439  0.73764865     0.84100
O928        O  0.28329178  0.92772180  0.77344493    -0.77000
C929        C  0.19421302  0.49931343  0.69123583     0.85000
O930        O  0.22216288  0.90810543  0.82885722    -0.77100
C931        C  0.13702672  0.98965965  0.82476302     0.85100
C932        C  0.24623798  0.55808532  0.80475438     0.85400
O933        O  0.24890943  0.53301347  0.82608240    -0.79500
C934        C  0.24339371  0.65783344  0.81953444     0.03700
C935        C  0.23034803  0.65766631  0.85376414     0.03700
C936        C  0.21237035  0.62858382  0.86393549    -0.16800
C937        C  0.22454685  0.59632670  0.85345918     0.03700
C938        C  0.23977492  0.59345210  0.81995040     0.03700
C939        C  0.24622272  0.62531459  0.80177245    -0.16800
H940        H  0.25617266  0.62473014  0.77569913     0.05800
H941        H  0.19818556  0.63038478  0.88800924     0.05800
O942        O  0.19845468  0.61014579  0.98049839    -0.77000
C943        C  0.30007406  0.55088801  0.49585722     0.84000
O944        O  0.21558995  0.53977052  0.87993537    -0.78100
O945        O  0.24339701  0.94626193  0.96912430    -0.79600
O946        O  0.17145208  0.52563459  0.54007229    -0.79400
O947        O  0.15002726  0.57946615  0.97664944    -0.78100
Zn948      Zn  0.23015200  0.57180362  0.96247285     1.55700
O949        O  0.21547814  0.98838340  0.54644308    -0.79400
Cd950      Cd  0.16689832  0.53063312  0.98803553     1.59700
Cd951      Cd  0.19970439  0.51165614  0.92240705     1.59600
O952        O  0.13191698  0.49491395  0.96478690    -0.79400
O953        O  0.21298973  0.52704321  0.96865516    -1.89900
Cd954      Cd  0.24228437  0.49435346  0.99764484     1.59900
O955        O  0.14817383  0.02086845  0.91733551    -0.79400
O956        O  0.29272413  0.51929892  0.50394271    -0.78100
C957        C  0.22557081  0.57096461  0.88283742     0.84500
C958        C  0.16540747  0.60882381  0.97683077     0.84100
O959        O  0.27763847  0.57011161  0.98103674    -0.77000
C960        C  0.18837059  0.00378965  0.55820302     0.85000
O961        O  0.23260219  0.58351017  0.91266694    -0.77100
C962        C  0.12718318  0.50113299  0.93257955     0.85100
C963        C  0.22836881  0.93810694  0.94000207     0.85400
O964        O  0.21047549  0.96005073  0.92238126    -0.79500
C965        C  0.33283215  0.60311621  0.01811633     0.03700
C966        C  0.33364989  0.56824567  0.00583013     0.03700
C967        C  0.36692014  0.55146947  0.50474841    -0.16800
C968        C  0.39819796  0.57072202  0.51242453     0.03700
C969        C  0.39413939  0.60497168  0.52646420     0.03700
C970        C  0.36128901  0.61402924  0.53789467    -0.16800
H971        H  0.35864682  0.63806370  0.55228425     0.05800
H972        H  0.36853571  0.52489286  0.49593782     0.05800
C973        C  0.07116339  0.99678606  0.84306282     0.03700
C974        C  0.10662705  0.98585844  0.84856038     0.03700
C975        C  0.11572728  0.97157005  0.88062851    -0.16800
C976        C  0.10036762  0.48467303  0.90991116     0.03700
C977        C  0.06572738  0.49733173  0.90704363     0.03700
C978        C  0.05032341  0.00107376  0.87313547    -0.16800
H979        H  0.02327590  0.00867405  0.87023617     0.05800
H980        H  0.14134668  0.95980820  0.88390080     0.05800
C981        C  0.01282927  0.91120335  0.60312672     0.03700
C982        C  0.99905665  0.91236433  0.56859109     0.03700
C983        C  0.49282791  0.87994317  0.55132388    -0.16800
C984        C  0.49328874  0.84813631  0.57078652     0.03700
C985        C  0.50233832  0.85007132  0.60696088     0.03700
C986        C  0.51968158  0.87942923  0.61846163    -0.16800
H987        H  0.53118708  0.87894333  0.64422903     0.05800
H988        H  0.48492631  0.87968914  0.52415619     0.05800
C989        C  0.15533914  0.82666670  0.73692197     0.03700
C990        C  0.15365928  0.86207810  0.72484060     0.03700
C991        C  0.12259575  0.87249499  0.70857608    -0.16800
C992        C  0.09131246  0.85828284  0.71899641     0.03700
C993        C  0.09073629  0.82424383  0.73319600     0.03700
C994        C  0.12335560  0.80756496  0.73953059    -0.16800
H995        H  0.12379700  0.78101613  0.74881068     0.05800
H996        H  0.12167554  0.89750312  0.69575946     0.05800
C997        C  0.31726440  0.74576785  0.59407543     0.03700
C998        C  0.35166082  0.73179914  0.59969422     0.03700
C999        C  0.35998878  0.71982318  0.63294768    -0.16800
C1000       C  0.35042768  0.74094532  0.65977264     0.03700
C1001       C  0.31609349  0.75435193  0.65800154     0.03700
C1002       C  0.29841400  0.75453956  0.62470579    -0.16800
H1003       H  0.27145724  0.76261183  0.62258705     0.05800
H1004       H  0.38331900  0.70434079  0.63720605     0.05800
O1005       O  0.38179721  0.76368767  0.71066787    -0.77000
C1006       C  0.44199660  0.75716072  0.80870984     0.84000
O1007       O  0.45915047  0.86670667  0.74719751    -0.78100
O1008       O  0.04934568  0.77841088  0.75159340    -0.79600
O1009       O  0.47663006  0.71762611  0.67575468    -0.79400
O1010       O  0.40792421  0.76285266  0.66000511    -0.78100
Zn1011     Zn  0.41937514  0.78967881  0.73895636     1.55700
O1012       O  0.00234480  0.70483505  0.72656980    -0.79400
Cd1013     Cd  0.45957805  0.76694406  0.67384806     1.59700
Cd1014     Cd  0.48048696  0.83042979  0.71433823     1.59600
O1015       O  0.48749141  0.79601504  0.63708996    -0.79400
O1016       O  0.46436751  0.78359914  0.72140261    -1.89900
Cd1017     Cd  0.49798898  0.75433347  0.75162326     1.59900
O1018       O  0.47767309  0.84599271  0.66280603    -0.79400
O1019       O  0.47384931  0.74983222  0.80182580    -0.78100
C1020       C  0.42677404  0.86691908  0.75304101     0.84500
C1021       C  0.38110090  0.75729055  0.67823366     0.84100
O1022       O  0.42198064  0.77106487  0.78613064    -0.77000
C1023       C  0.99286548  0.69656733  0.69545595     0.85000
O1024       O  0.40801442  0.84039016  0.74557406    -0.77100
C1025       C  0.48785178  0.82904152  0.63642164     0.85100
C1026       C  0.05549887  0.80782396  0.73721028     0.85400
O1027       O  0.03080769  0.82547776  0.72422743    -0.79500
O1028       O  0.03998014  0.89150841  0.70282494    -0.77000
C1029       C  0.44092287  0.94771058  0.74499218     0.84000
O1030       O  0.03707037  0.96097363  0.63255688    -0.78100
O1031       O  0.49644195  0.55602511  0.72106486    -0.79600
O1032       O  0.07249822  0.97700408  0.78636121    -0.79400
O1033       O  0.06858310  0.90434002  0.75102681    -0.78100
Zn1034     Zn  0.00456388  0.93237979  0.70146719     1.55700
O1035       O  0.02597580  0.50868037  0.79794081    -0.79400
Cd1036     Cd  0.07022765  0.95545855  0.73978782     1.59700
Cd1037     Cd  0.04438194  0.99428014  0.67528060     1.59600
O1038       O  0.11276151  0.95892791  0.70675468    -0.79400
O1039       O  0.02745819  0.97297765  0.71752919    -1.89900
Cd1040     Cd  0.49915233  0.00549602  0.74752042     1.59900
O1041       O  0.09581279  0.00539488  0.67806628    -0.79400
O1042       O  0.44960749  0.97908420  0.75307848    -0.78100
C1043       C  0.51204529  0.93954773  0.62899684     0.84500
C1044       C  0.06397359  0.88472825  0.72521661     0.84100
O1045       O  0.46085836  0.92846821  0.72748363    -0.77000
C1046       C  0.05550185  0.49524984  0.80714289     0.85000
O1047       O  0.48921695  0.93715892  0.65211319    -0.77100
C1048       C  0.11757563  0.98140408  0.68323947     0.85100
C1049       C  0.50882652  0.56398299  0.69116734     0.85400
O1050       O  0.02499054  0.54179516  0.67381330    -0.79500
O1051       O  0.45063372  0.63519711  0.52945906    -0.77000
C1052       C  0.05062853  0.69443740  0.00264359     0.84000
O1053       O  0.49644947  0.71845016  0.61542787    -0.78100
O1054       O  0.99793736  0.80335913  0.52591698    -0.79600
O1055       O  0.41990937  0.72798321  0.96490854    -0.79400
O1056       O  0.40330298  0.66497378  0.51711026    -0.78100
Zn1057     Zn  0.48355483  0.67584594  0.53920379     1.55700
O1058       O  0.46825164  0.75450059  0.94951185    -0.79400
Cd1059     Cd  0.41877314  0.71560704  0.51507218     1.59700
Cd1060     Cd  0.46261883  0.74080584  0.57792526     1.59600
O1061       O  0.38151285  0.73996674  0.54446839    -0.79400
O1062       O  0.46651934  0.72144292  0.53178736    -1.89900
Cd1063     Cd  0.49447208  0.75289561  0.00036901     1.59900
O1064       O  0.41272875  0.73155062  0.59228142    -0.79400
O1065       O  0.04379616  0.72659118  0.99630432    -0.78100
C1066       C  0.50246064  0.68602358  0.61518548     0.84500
C1067       C  0.41799132  0.63605006  0.52345558     0.84100
O1068       O  0.02859383  0.67452385  0.51666662    -0.77000
C1069       C  0.43798488  0.74186858  0.94179409     0.85000
O1070       O  0.49556374  0.66862271  0.58803440    -0.77100
C1071       C  0.38303067  0.73461124  0.57702369     0.85100
C1072       C  0.48564088  0.81332766  0.55519949     0.85400
O1073       O  0.46926914  0.79262072  0.57453190    -0.79500
C1074       C  0.17728332  0.99134003  0.65657680     0.03700
C1075       C  0.14345624  0.97650157  0.65599056     0.03700
C1076       C  0.12775516  0.96711179  0.62451692    -0.18400
C1077       C  0.13736217  0.48378397  0.59405321     0.03700
C1078       C  0.17317108  0.49456195  0.59227574     0.03700
C1079       C  0.19334224  0.99687772  0.62396836    -0.16800
H1080       H  0.21996486  0.00616501  0.62335157     0.05800
H1081       H  0.10246659  0.95460293  0.62532446     0.05800
O1082       O  0.03078074  0.61138678  0.49705946    -0.77000
C1083       C  0.43403380  0.55543995  0.00974884     0.84000
O1084       O  0.01599409  0.54830435  0.61241929    -0.78100
O1085       O  0.49465669  0.95223155  0.51924445    -0.79600
O1086       O  0.06860254  0.52011131  0.96301380    -0.79400
O1087       O  0.08327191  0.58979084  0.00778839    -0.78100
Zn1088     Zn  0.00841305  0.57780403  0.53109713     1.55700
O1089       O  0.01637326  0.00030128  0.94597057    -0.79400
Cd1090     Cd  0.07156651  0.53774557  0.51218113     1.59700
Cd1091     Cd  0.02605740  0.51231559  0.57388115     1.59600
O1092       O  0.10973271  0.51145715  0.54255114    -0.79400
O1093       O  0.02410978  0.53213080  0.52722736    -1.89900
Cd1094     Cd  0.49236866  0.50267055  0.99578073     1.59900
O1095       O  0.07627784  0.99430024  0.58507123    -0.79400
O1096       O  0.44071180  0.52571547  0.99631864    -0.78100
C1097       C  0.01838431  0.58106778  0.60990653     0.84500
C1098       C  0.06376948  0.61402622  0.49575393     0.84100
O1099       O  0.45842231  0.57362679  0.52263758    -0.77000
C1100       C  0.04846603  0.00711425  0.93989295     0.85000
O1101       O  0.51761668  0.59522538  0.57986010    -0.77100
C1102       C  0.10647908  0.49648602  0.57183838     0.85100
C1103       C  0.49345266  0.94719675  0.55209494     0.85400
O1104       O  0.99025036  0.97290999  0.57234703    -0.79500
C1105       C  0.50380843  0.66374743  0.67873525     0.03700
C1106       C  0.51808104  0.66576628  0.64498008     0.03700
C1107       C  0.03614185  0.63706784  0.63351921    -0.16800
C1108       C  0.02239340  0.60460392  0.64116118     0.03700
C1109       C  0.00848255  0.59971771  0.67527567     0.03700
C1110       C  0.00131742  0.63034271  0.69482514    -0.16800
H1111       H  0.99219624  0.62816447  0.72114365     0.05800
H1112       H  0.05076986  0.64004945  0.60985228     0.05800
C1113       C  0.14763230  0.67436122  0.98676443     0.03700
C1114       C  0.14241891  0.64032906  0.97236275     0.03700
C1115       C  0.10929820  0.63247354  0.95906038    -0.16800
C1116       C  0.08156321  0.64358018  0.47824007     0.03700
C1117       C  0.08356461  0.67764454  0.49201847     0.03700
C1118       C  0.11705970  0.69389540  0.99438144    -0.16800
H1119       H  0.11940757  0.72022173  0.00386369     0.05800
H1120       H  0.10553051  0.60863963  0.94445148     0.05800
C1121       C  0.92507830  0.24699942  0.34175974     0.03700
C1122       C  0.89056517  0.23366356  0.33957209     0.03700
C1123       C  0.87970038  0.21350628  0.36694335    -0.16800
C1124       C  0.88814841  0.22523999  0.40025935     0.03700
C1125       C  0.92231293  0.24021897  0.40572507     0.03700
C1126       C  0.94169988  0.24853407  0.37536430    -0.16800
H1127       H  0.96822677  0.25792960  0.37794356     0.05800
H1128       H  0.85571677  0.19890421  0.36283025     0.05800
C1129       C  0.73763673  0.33866603  0.42868769     0.03700
C1130       C  0.72484687  0.33671985  0.39370169     0.03700
C1131       C  0.70552069  0.36479346  0.38143621    -0.16800
C1132       C  0.71845392  0.39741135  0.38980991     0.03700
C1133       C  0.73014893  0.40243624  0.42488588     0.03700
C1134       C  0.73793076  0.37196143  0.44510812    -0.16800
H1135       H  0.74582332  0.37425990  0.47217341     0.05800
H1136       H  0.69121689  0.36173647  0.35697694     0.05800
C1137       C  0.90808515  0.43129446  0.25745640     0.03700
C1138       C  0.90913884  0.39666213  0.27021799     0.03700
C1139       C  0.88207177  0.38598566  0.29071985    -0.16800
C1140       C  0.84864397  0.39572461  0.28008255     0.03700
C1141       C  0.84406531  0.43019060  0.26609691     0.03700
C1142       C  0.87513819  0.44874735  0.25734556    -0.16800
H1143       H  0.87335828  0.47519738  0.24794948     0.05800
H1144       H  0.88542767  0.36156932  0.30460402     0.05800
O1145       O  0.85829996  0.22528166  0.45623632    -0.77000
C1146       C  0.80049918  0.24384665  0.05828220     0.84000
O1147       O  0.78133020  0.13150027  0.49151915    -0.78100
O1148       O  0.69175492  0.21875340  0.00258221    -0.79600
O1149       O  0.76869475  0.28704364  0.42851574    -0.79400
O1150       O  0.82712675  0.22946775  0.40783086    -0.78100
Zn1151     Zn  0.81940148  0.21092615  0.48851739     1.55700
O1152       O  0.73530691  0.29496799  0.47449933    -0.79400
Cd1153     Cd  0.77737696  0.23549910  0.42416151     1.59700
Cd1154     Cd  0.75677070  0.17005732  0.46164948     1.59600
O1155       O  0.74494332  0.21016021  0.38692063    -0.79400
O1156       O  0.77358314  0.21671941  0.47083913    -1.89900
Cd1157     Cd  0.74171632  0.24581663  0.00106434     1.59900
O1158       O  0.75796084  0.15873650  0.40924112    -0.79400
O1159       O  0.76831276  0.25120136  0.05142418    -0.78100
C1160       C  0.81289680  0.13306706  0.50195936     0.84500
C1161       C  0.85672775  0.22711508  0.42325917     0.84100
O1162       O  0.81940563  0.23111775  0.03504224    -0.77000
C1163       C  0.74874162  0.30586464  0.44609955     0.85000
O1164       O  0.82936322  0.16155223  0.49925364    -0.77100
C1165       C  0.74573134  0.17717455  0.38418329     0.85100
C1166       C  0.68362290  0.18969253  0.98798776     0.85400
O1167       O  0.70613457  0.17230418  0.47218139    -0.79500
O1168       O  0.85769516  0.25431294  0.28858712    -0.77000
C1169       C  0.79963671  0.26214312  0.19169893     0.84000
O1170       O  0.79186193  0.36722009  0.28037871    -0.78100
O1171       O  0.69598695  0.27827989  0.24298786    -0.79600
O1172       O  0.76930259  0.21219785  0.32479889    -0.79400
O1173       O  0.83592641  0.26172493  0.34076118    -0.78100
Zn1174     Zn  0.82203145  0.28663488  0.26414445     1.55700
O1175       O  0.74152335  0.20201543  0.27416768    -0.79400
Cd1176     Cd  0.78347316  0.26244211  0.32816452     1.59700
Cd1177     Cd  0.75756993  0.32710282  0.28742814     1.59600
O1178       O  0.75401131  0.28682319  0.36674481    -0.79400
O1179       O  0.77650577  0.28104440  0.28113963    -1.89900
Cd1180     Cd  0.74534747  0.25213438  0.24941837     1.59900
O1181       O  0.74358867  0.33402183  0.33634981    -0.79400
O1182       O  0.76987794  0.24966780  0.19991215    -0.78100
C1183       C  0.82443884  0.36506304  0.27662172     0.84500
C1184       C  0.86053884  0.25147382  0.32152572     0.84100
O1185       O  0.81889545  0.27758839  0.21390787    -0.77000
C1186       C  0.75279353  0.19200082  0.30434045     0.85000
O1187       O  0.83817895  0.33556204  0.27102538    -0.77100
C1188       C  0.74168646  0.31737927  0.36461589     0.85100
C1189       C  0.68924267  0.31055283  0.24784405     0.85400
O1190       O  0.71149875  0.33044013  0.26196577    -0.79500
O1191       O  0.70750201  0.39069111  0.24683511    -0.77000
C1192       C  0.80822835  0.44624258  0.26306262     0.84000
O1193       O  0.73248849  0.45300654  0.36271534    -0.78100
O1194       O  0.74641018  0.05216064  0.27184727    -0.79600
O1195       O  0.67407950  0.50507271  0.21639967    -0.79400
O1196       O  0.65973963  0.42143364  0.24088859    -0.78100
Zn1197     Zn  0.73264321  0.42468186  0.28031769     1.55700
O1198       O  0.72722241  0.99715223  0.19703465    -0.79400
Cd1199     Cd  0.67228416  0.47088377  0.25717896     1.59700
Cd1200     Cd  0.71796951  0.48924491  0.32493372     1.59600
O1201       O  0.63485293  0.48057841  0.29320001    -0.79400
O1202       O  0.71913922  0.47120954  0.27716015    -1.89900
Cd1203     Cd  0.75094702  0.50120812  0.24823484     1.59900
O1204       O  0.66645022  0.49790010  0.33867358    -0.79400
O1205       O  0.80224410  0.47718225  0.25166607    -0.78100
C1206       C  0.72449260  0.42117265  0.35927433     0.84500
C1207       C  0.67551541  0.39263072  0.23767559     0.84100
O1208       O  0.78327555  0.42773128  0.27343010    -0.77000
C1209       C  0.69419943  0.99930894  0.19125317     0.85000
O1210       O  0.72218616  0.40809939  0.32887166    -0.77100
C1211       C  0.63701514  0.48961857  0.32478981     0.85100
C1212       C  0.74620763  0.05809509  0.30475622     0.85400
O1213       O  0.74887864  0.03302708  0.32608884    -0.79500
C1214       C  0.74337882  0.15784593  0.31951089     0.03700
C1215       C  0.73034972  0.15768788  0.35374788     0.03700
C1216       C  0.71236462  0.12861430  0.36392944    -0.16800
C1217       C  0.72452912  0.09635094  0.35345885     0.03700
C1218       C  0.73974921  0.09346551  0.31994574     0.03700
C1219       C  0.74619647  0.12532224  0.30175638    -0.16800
H1220       H  0.75613753  0.12472930  0.27567973     0.05800
H1221       H  0.69818517  0.13042681  0.38800526     0.05800
O1222       O  0.69844147  0.11013233  0.48055461    -0.77000
C1223       C  0.80006695  0.05088699  0.99588045     0.84000
O1224       O  0.71559146  0.03978774  0.37993409    -0.78100
O1225       O  0.74343500  0.44626471  0.46914587    -0.79600
O1226       O  0.67145137  0.02563636  0.04010534    -0.79400
O1227       O  0.65002068  0.07945293  0.47660162    -0.78100
Zn1228     Zn  0.73013662  0.07180799  0.46247942     1.55700
O1229       O  0.71545542  0.48835621  0.04644866    -0.79400
Cd1230     Cd  0.66689434  0.03061995  0.48800187     1.59700
Cd1231     Cd  0.69972552  0.01164082  0.42239126     1.59600
O1232       O  0.63191701  0.99488512  0.46476986    -0.79400
O1233       O  0.71298961  0.02703833  0.46863920    -1.89900
Cd1234     Cd  0.74229919  0.99436463  0.49763862     1.59900
O1235       O  0.64818445  0.52077142  0.41728207    -0.79400
O1236       O  0.79271047  0.01929663  0.00396124    -0.78100
C1237       C  0.72554397  0.07099058  0.38284122     0.84500
C1238       C  0.66539840  0.10881281  0.47683661     0.84100
O1239       O  0.77763646  0.07010927  0.48102174    -0.77000
C1240       C  0.68835841  0.50377145  0.05822177     0.85000
O1241       O  0.73255701  0.08353746  0.41267457    -0.77100
C1242       C  0.62718458  0.00106798  0.43255545     0.85100
C1243       C  0.72843193  0.43810774  0.44001329     0.85400
O1244       O  0.71054955  0.46004876  0.42237870    -0.79500
C1245       C  0.83282906  0.10311466  0.51809836     0.03700
C1246       C  0.83365586  0.06825023  0.50580189     0.03700
C1247       C  0.86691049  0.05145722  0.00477621    -0.16800
C1248       C  0.89819355  0.07070274  0.01244682     0.03700
C1249       C  0.89414495  0.10495162  0.02649209     0.03700
C1250       C  0.86129459  0.11402606  0.03791178    -0.16800
H1251       H  0.85865937  0.13806480  0.05229580     0.05800
H1252       H  0.86851938  0.02488052  0.99596435     0.05800
C1253       C  0.57115075  0.49676688  0.34306733     0.03700
C1254       C  0.60660303  0.48580451  0.34856895     0.03700
C1255       C  0.61567635  0.47147994  0.38062881    -0.16800
C1256       C  0.60034348  0.98461174  0.40991371     0.03700
C1257       C  0.56572028  0.99731523  0.40704696     0.03700
C1258       C  0.55031583  0.50107261  0.37314009    -0.16800
H1259       H  0.52327635  0.50870137  0.37024253     0.05800
H1260       H  0.64128114  0.45968587  0.38389706     0.05800
C1261       C  0.51285898  0.41120491  0.10312306     0.03700
C1262       C  0.49909336  0.41236194  0.06858438     0.03700
C1263       C  0.99287270  0.37994038  0.05131603    -0.16800
C1264       C  0.99332836  0.34813397  0.07077821     0.03700
C1265       C  0.00236393  0.35007076  0.10695708     0.03700
C1266       C  0.01970324  0.37943058  0.11846163    -0.16800
H1267       H  0.03120209  0.37894550  0.14423242     0.05800
H1268       H  0.98497554  0.37968617  0.02414694     0.05800
C1269       C  0.65530946  0.32667925  0.23696727     0.03700
C1270       C  0.65362994  0.36208597  0.22487597     0.03700
C1271       C  0.62256837  0.37250048  0.20860628    -0.16800
C1272       C  0.59128377  0.35828705  0.21901994     0.03700
C1273       C  0.59070895  0.32425185  0.23322826     0.03700
C1274       C  0.62332746  0.30757674  0.23957538    -0.16800
H1275       H  0.62376908  0.28102993  0.24886103     0.05800
H1276       H  0.62165042  0.39750439  0.19578303     0.05800
C1277       C  0.81724322  0.24580451  0.09405882     0.03700
C1278       C  0.85163824  0.23182774  0.09966865     0.03700
C1279       C  0.85996956  0.21984110  0.13291733    -0.16800
C1280       C  0.85041492  0.24095473  0.15975131     0.03700
C1281       C  0.81608119  0.25436584  0.15798873     0.03700
C1282       C  0.79839857  0.25456888  0.12469454    -0.16800
H1283       H  0.77144259  0.26264480  0.12258182     0.05800
H1284       H  0.88329851  0.20435421  0.13716576     0.05800
O1285       O  0.88179098  0.26368094  0.21065195    -0.77000
C1286       C  0.94199535  0.25717824  0.30870925     0.84000
O1287       O  0.95912866  0.36670857  0.24718179    -0.78100
O1288       O  0.54932537  0.27841000  0.25160715    -0.79600
O1289       O  0.97661814  0.21762906  0.17576081    -0.79400
O1290       O  0.90791818  0.26285018  0.15998941    -0.78100
Zn1291     Zn  0.91936304  0.28967957  0.23894428     1.55700
O1292       O  0.50233792  0.20483484  0.22657116    -0.79400
Cd1293     Cd  0.95957110  0.26694639  0.17383882     1.59700
Cd1294     Cd  0.98047109  0.33043084  0.21433116     1.59600
O1295       O  0.98749729  0.29601469  0.13708322    -0.79400
O1296       O  0.96435465  0.28359998  0.22139332    -1.89900
Cd1297     Cd  0.99797436  0.25433368  0.25161955     1.59900
O1298       O  0.97768534  0.34599433  0.16279757    -0.79400
O1299       O  0.97384375  0.24983963  0.30182134    -0.78100
C1300       C  0.92675079  0.36692168  0.25301520     0.84500
C1301       C  0.88109355  0.25728836  0.17821648     0.84100
O1302       O  0.92197811  0.27108081  0.28612929    -0.77000
C1303       C  0.49285507  0.19656924  0.19545806     0.85000
O1304       O  0.90799257  0.34039292  0.24554324    -0.77100
C1305       C  0.98786671  0.32904154  0.13641513     0.85100
C1306       C  0.55547485  0.30782726  0.23723326     0.85400
O1307       O  0.53078363  0.32547779  0.22424696    -0.79500
O1308       O  0.53995926  0.39151280  0.20282009    -0.77000
C1309       C  0.94090222  0.44771217  0.24497062     0.84000
O1310       O  0.53709347  0.46097575  0.13256393    -0.78100
O1311       O  0.99641795  0.05602434  0.22105553    -0.79600
O1312       O  0.57248593  0.47699718  0.28636090    -0.79400
O1313       O  0.56852995  0.40433858  0.25104018    -0.78100
Zn1314     Zn  0.50454575  0.43238725  0.20144990     1.55700
O1315       O  0.52596328  0.00867213  0.29794248    -0.79400
Cd1316     Cd  0.57019735  0.45545266  0.23979066     1.59700
Cd1317     Cd  0.54438339  0.49429239  0.17528775     1.59600
O1318       O  0.61273116  0.45891086  0.20676060    -0.79400
O1319       O  0.52743742  0.47298329  0.21752458    -1.89900
Cd1320     Cd  0.99913506  0.50549718  0.24751790     1.59900
O1321       O  0.59581449  0.50541686  0.17812218    -0.79400
O1322       O  0.94959189  0.47908163  0.25306790    -0.78100
C1323       C  0.01206598  0.43955384  0.12898973     0.84500
C1324       C  0.56393860  0.38472986  0.22522571     0.84100
O1325       O  0.96083367  0.42847188  0.22745503    -0.77000
C1326       C  0.55548975  0.99524046  0.30714461     0.85000
O1327       O  0.98922075  0.43717522  0.15209036    -0.77100
C1328       C  0.61756219  0.48140758  0.18326957     0.85100
C1329       C  0.00880111  0.06398497  0.19115760     0.85400
O1330       O  0.52497472  0.04180208  0.17380480    -0.79500
O1331       O  0.95063988  0.13517774  0.02951793    -0.77000
C1332       C  0.55064334  0.19445118  0.50269517     0.84000
O1333       O  0.99640643  0.21845665  0.11544579    -0.78100
O1334       O  0.49795577  0.30335570  0.02590195    -0.79600
O1335       O  0.91992017  0.22803385  0.46492298    -0.79400
O1336       O  0.90331913  0.16494073  0.01709449    -0.78100
Zn1337     Zn  0.98356714  0.17584241  0.03919211     1.55700
O1338       O  0.96828158  0.25450677  0.44951603    -0.79400
Cd1339     Cd  0.91877327  0.21557357  0.01505811     1.59700
Cd1340     Cd  0.96260758  0.24081922  0.07791760     1.59600
O1341       O  0.88148771  0.23992341  0.04443028    -0.79400
O1342       O  0.96651593  0.22143792  0.03178253    -1.89900
Cd1343     Cd  0.99448163  0.25290176  0.50038352     1.59900
O1344       O  0.91270565  0.23161803  0.09226239    -0.79400
O1345       O  0.54381079  0.22660270  0.49634398    -0.78100
C1346       C  0.00247124  0.18604073  0.11518036     0.84500
C1347       C  0.91800291  0.13602388  0.02347846     0.84100
O1348       O  0.52858339  0.17450802  0.01661749    -0.77000
C1349       C  0.93800491  0.24189679  0.44180221     0.85000
O1350       O  0.99562784  0.16865735  0.08800692    -0.77100
C1351       C  0.88300751  0.23463391  0.07699587     0.85100
C1352       C  0.98567093  0.31332751  0.05518883     0.85400
O1353       O  0.96929566  0.29262583  0.07452204    -0.79500
C1354       C  0.67726726  0.49133228  0.15659620     0.03700
C1355       C  0.64343464  0.47650709  0.15601304     0.03700
C1356       C  0.62772834  0.46712014  0.12454183    -0.18400
C1357       C  0.63734525  0.98377633  0.09407290     0.03700
C1358       C  0.67315881  0.99453818  0.09229355     0.03700
C1359       C  0.69332935  0.49685470  0.12398668    -0.16800
H1360       H  0.71995486  0.50613356  0.12336876     0.05800
H1361       H  0.60243671  0.45461980  0.12535119     0.05800
O1362       O  0.53078838  0.11137597  0.99704114    -0.77000
C1363       C  0.93403993  0.05546079  0.50974601     0.84000
O1364       O  0.51595272  0.04831056  0.11240993    -0.78100
O1365       O  0.99468360  0.45222539  0.01923758    -0.79600
O1366       O  0.56861872  0.02013744  0.46300137    -0.79400
O1367       O  0.58326380  0.08981229  0.50782951    -0.78100
Zn1368     Zn  0.50841077  0.07780227  0.03108100     1.55700
O1369       O  0.51638733  0.50029881  0.44598738    -0.79400
Cd1370     Cd  0.57156636  0.03772666  0.01218251     1.59700
Cd1371     Cd  0.52604425  0.01232219  0.07388031     1.59600
O1372       O  0.60972973  0.01142621  0.04255016    -0.79400
O1373       O  0.52410611  0.03212845  0.02722314    -1.89900
Cd1374     Cd  0.99237049  0.00267942  0.49578596     1.59900
O1375       O  0.57626782  0.49432295  0.08508580    -0.79400
O1376       O  0.94072444  0.02574513  0.49630013    -0.78100
C1377       C  0.51834913  0.08107334  0.10989592     0.84500
C1378       C  0.56377678  0.11400836  0.99571939     0.84100
O1379       O  0.95842367  0.07361375  0.02261296    -0.77000
C1380       C  0.54847477  0.50712204  0.43989525     0.85000
O1381       O  0.01759478  0.09523012  0.07984846    -0.77100
C1382       C  0.60646952  0.99648110  0.07184990     0.85100
C1383       C  0.99347652  0.44719108  0.05208777     0.85400
O1384       O  0.49025428  0.47290274  0.07233813    -0.79500
C1385       C  0.00379373  0.16375111  0.17873261     0.03700
C1386       C  0.01807289  0.16577053  0.14497878     0.03700
C1387       C  0.53612451  0.13706501  0.13351912    -0.16800
C1388       C  0.52235773  0.10460721  0.14115177     0.03700
C1389       C  0.50844771  0.09971983  0.17526556     0.03700
C1390       C  0.50129001  0.13034481  0.19481787    -0.16800
H1391       H  0.49216829  0.12816629  0.22113612     0.05800
H1392       H  0.55076249  0.14004108  0.10985782     0.05800
C1393       C  0.64764227  0.17435400  0.48678684     0.03700
C1394       C  0.64241300  0.14032351  0.47238673     0.03700
C1395       C  0.60928626  0.13248210  0.45909144    -0.16800
C1396       C  0.58156659  0.14356470  0.97820143     0.03700
C1397       C  0.58355215  0.17763590  0.99196736     0.03700
C1398       C  0.61707773  0.19389488  0.49442252    -0.16800
H1399       H  0.61943622  0.22021988  0.50390600     0.05800
H1400       H  0.60550453  0.10865386  0.44447688     0.05800
C1401       C  0.92507276  0.24697443  0.84175531     0.03700
C1402       C  0.89055419  0.23365098  0.83956284     0.03700
C1403       C  0.87967306  0.21350298  0.86693417    -0.16800
C1404       C  0.88812189  0.22523511  0.90025052     0.03700
C1405       C  0.92229314  0.24019807  0.90571849     0.03700
C1406       C  0.94168818  0.24850455  0.87536153    -0.16800
H1407       H  0.96821789  0.25789116  0.87794518     0.05800
H1408       H  0.85568295  0.19891224  0.86281766     0.05800
C1409       C  0.73757492  0.33866584  0.92865776     0.03700
C1410       C  0.72479086  0.33672174  0.89366904     0.03700
C1411       C  0.70546224  0.36479530  0.88140394    -0.16800
C1412       C  0.71838348  0.39741584  0.88979042     0.03700
C1413       C  0.73007541  0.40243579  0.92486815     0.03700
C1414       C  0.73786035  0.37195839  0.94508359    -0.16800
H1415       H  0.74575278  0.37425341  0.97214917     0.05800
H1416       H  0.69116627  0.36174189  0.85693974     0.05800
C1417       C  0.90810647  0.43129083  0.75747981     0.03700
C1418       C  0.90916350  0.39666013  0.77024605     0.03700
C1419       C  0.88209540  0.38598315  0.79074810    -0.16800
C1420       C  0.84866572  0.39571738  0.78010954     0.03700
C1421       C  0.84408430  0.43018013  0.76611447     0.03700
C1422       C  0.87515618  0.44873820  0.75736072    -0.16800
H1423       H  0.87337337  0.47518541  0.74795703     0.05800
H1424       H  0.88545317  0.36156844  0.80463459     0.05800
O1425       O  0.85827860  0.22530302  0.95623094    -0.77000
C1426       C  0.80052790  0.24380643  0.55829510     0.84000
O1427       O  0.78132922  0.13150386  0.99154232    -0.78100
O1428       O  0.69178429  0.21873207  0.50258893    -0.79600
O1429       O  0.76865214  0.28704965  0.92849645    -0.79400
O1430       O  0.82709909  0.22946288  0.90782630    -0.78100
Zn1431     Zn  0.81938341  0.21094032  0.98851810     1.55700
O1432       O  0.73525755  0.29497383  0.97447406    -0.79400
Cd1433     Cd  0.77734867  0.23550216  0.92416003     1.59700
Cd1434     Cd  0.75676417  0.17006186  0.96167315     1.59600
O1435       O  0.74491708  0.21014634  0.88693129    -0.79400
O1436       O  0.77356362  0.21673165  0.97084253    -1.89900
Cd1437     Cd  0.74174634  0.24579727  0.50107240     1.59900
O1438       O  0.75793199  0.15872819  0.90926913    -0.79400
O1439       O  0.76834255  0.25116148  0.55143337    -0.78100
C1440       C  0.81289596  0.13307260  0.00198223     0.84500
C1441       C  0.85670236  0.22711821  0.92325254     0.84100
O1442       O  0.81943927  0.23108374  0.53505456    -0.77000
C1443       C  0.74868843  0.30586773  0.94607198     0.85000
O1444       O  0.82935831  0.16156154  0.99927600    -0.77100
C1445       C  0.74570805  0.17715997  0.88420401     0.85100
C1446       C  0.68363734  0.18967813  0.48798689     0.85400
O1447       O  0.70613384  0.17231808  0.97220509    -0.79500
O1448       O  0.85768322  0.25428659  0.78857602    -0.77000
C1449       C  0.79964791  0.26213809  0.69170847     0.84000
O1450       O  0.79188258  0.36721081  0.78039059    -0.78100
O1451       O  0.69600227  0.27825676  0.74298403    -0.79600
O1452       O  0.76932754  0.21218617  0.82482909    -0.79400
O1453       O  0.83594151  0.26176274  0.84075360    -0.78100
Zn1454     Zn  0.82203506  0.28663207  0.76414834     1.55700
O1455       O  0.74153492  0.20200802  0.77420275    -0.79400
Cd1456     Cd  0.78348053  0.26244470  0.82817132     1.59700
Cd1457     Cd  0.75757596  0.32709644  0.78741059     1.59600
O1458       O  0.75399744  0.28683995  0.86672915    -0.79400
O1459       O  0.77651140  0.28103588  0.78114474    -1.89900
Cd1460     Cd  0.74536178  0.25211399  0.74943387     1.59900
O1461       O  0.74353153  0.33401787  0.83631446    -0.79400
O1462       O  0.76990710  0.24963031  0.69993764    -0.78100
C1463       C  0.82446196  0.36505298  0.77665033     0.84500
C1464       C  0.86053855  0.25147567  0.82151620     0.84100
O1465       O  0.81889664  0.27761823  0.71390223    -0.77000
C1466       C  0.75281061  0.19199137  0.80437250     0.85000
O1467       O  0.83820269  0.33555092  0.77106065    -0.77100
C1468       C  0.74163969  0.31738282  0.86458608     0.85100
C1469       C  0.68927093  0.31053842  0.74780207     0.85400
O1470       O  0.71153578  0.33043241  0.76189850    -0.79500
O1471       O  0.70752586  0.39068830  0.74681709    -0.77000
C1472       C  0.80824499  0.44622921  0.76307055     0.84000
O1473       O  0.73242453  0.45301480  0.86271055    -0.78100
O1474       O  0.74643807  0.05215553  0.77184406    -0.79600
O1475       O  0.67409002  0.50507020  0.71638176    -0.79400
O1476       O  0.65976264  0.42142599  0.74085998    -0.78100
Zn1477     Zn  0.73265263  0.42468149  0.78030909     1.55700
O1478       O  0.72723643  0.99715832  0.69701893    -0.79400
Cd1479     Cd  0.67229568  0.47087676  0.75715873     1.59700
Cd1480     Cd  0.71796824  0.48925804  0.82491125     1.59600
O1481       O  0.63486595  0.48056100  0.79318954    -0.79400
O1482       O  0.71915032  0.47120984  0.77714100    -1.89900
Cd1483     Cd  0.75096608  0.50120393  0.74822040     1.59900
O1484       O  0.66645816  0.49798296  0.83862647    -0.79400
O1485       O  0.80225966  0.47716318  0.75165685    -0.78100
C1486       C  0.72443945  0.42117929  0.85926124     0.84500
C1487       C  0.67554131  0.39262438  0.73764866     0.84100
O1488       O  0.78329178  0.42772182  0.77344497    -0.77000
C1489       C  0.69421299  0.99931347  0.69123582     0.85000
O1490       O  0.72216285  0.40810546  0.82885719    -0.77100
C1491       C  0.63702671  0.48965969  0.82476296     0.85100
C1492       C  0.74623796  0.05808533  0.80475438     0.85400
O1493       O  0.74890943  0.03301346  0.82608238    -0.79500
C1494       C  0.74339368  0.15783342  0.81953444     0.03700
C1495       C  0.73034805  0.15766628  0.85376418     0.03700
C1496       C  0.71237034  0.12858380  0.86393551    -0.16800
C1497       C  0.72454686  0.09632669  0.85345922     0.03700
C1498       C  0.73977492  0.09345208  0.81995044     0.03700
C1499       C  0.74622270  0.12531457  0.80177247    -0.16800
H1500       H  0.75617263  0.12473009  0.77569915     0.05800
H1501       H  0.69818553  0.13038476  0.88800925     0.05800
O1502       O  0.69845465  0.11014576  0.98049840    -0.77000
C1503       C  0.80007406  0.05088805  0.49585721     0.84000
O1504       O  0.71558996  0.03977051  0.87993537    -0.78100
O1505       O  0.74339699  0.44626193  0.96912419    -0.79600
O1506       O  0.67145203  0.02563462  0.54007228    -0.79400
O1507       O  0.65002723  0.07946609  0.97664943    -0.78100
Zn1508     Zn  0.73015200  0.07180367  0.96247286     1.55700
O1509       O  0.71547810  0.48838331  0.54644306    -0.79400
Cd1510     Cd  0.66689833  0.03063304  0.98803553     1.59700
Cd1511     Cd  0.69970439  0.01165620  0.92240707     1.59600
O1512       O  0.63191710  0.99491382  0.96478686    -0.79400
O1513       O  0.71298973  0.02704327  0.96865516    -1.89900
Cd1514     Cd  0.74228436  0.99435349  0.99764486     1.59900
O1515       O  0.64817387  0.52086843  0.91733551    -0.79400
O1516       O  0.79272416  0.01929896  0.50394267    -0.78100
C1517       C  0.72557082  0.07096459  0.88283744     0.84500
C1518       C  0.66540744  0.10882376  0.97683078     0.84100
O1519       O  0.77763844  0.07011157  0.98103681    -0.77000
C1520       C  0.68837058  0.50378959  0.55820304     0.85000
O1521       O  0.73260218  0.08351015  0.91266697    -0.77100
C1522       C  0.62718319  0.00113300  0.93257954     0.85100
C1523       C  0.72836880  0.43810694  0.94000195     0.85400
O1524       O  0.71047551  0.46005072  0.92238112    -0.79500
C1525       C  0.83283215  0.10311620  0.01811642     0.03700
C1526       C  0.83364986  0.06824566  0.00583020     0.03700
C1527       C  0.86692014  0.05146946  0.50474840    -0.16800
C1528       C  0.89819796  0.07072200  0.51242452     0.03700
C1529       C  0.89413940  0.10497166  0.52646422     0.03700
C1530       C  0.86128902  0.11402921  0.53789468    -0.16800
H1531       H  0.85864682  0.13806367  0.55228427     0.05800
H1532       H  0.86853572  0.02489281  0.49593780     0.05800
C1533       C  0.57116338  0.49678616  0.84306280     0.03700
C1534       C  0.60662705  0.48585856  0.84856035     0.03700
C1535       C  0.61572729  0.47157012  0.88062846    -0.16800
C1536       C  0.60036760  0.98467307  0.90991118     0.03700
C1537       C  0.56572736  0.99733178  0.90704363     0.03700
C1538       C  0.55032342  0.50107381  0.87313548    -0.16800
H1539       H  0.52327591  0.50867412  0.87023620     0.05800
H1540       H  0.64134667  0.45980827  0.88390073     0.05800
C1541       C  0.51282926  0.41120334  0.60312674     0.03700
C1542       C  0.49905667  0.41236431  0.56859110     0.03700
C1543       C  0.99282795  0.37994312  0.55132388    -0.16800
C1544       C  0.99328883  0.34813625  0.57078652     0.03700
C1545       C  0.00233835  0.35007131  0.60696090     0.03700
C1546       C  0.01968161  0.37942922  0.61846164    -0.16800
H1547       H  0.03118711  0.37894332  0.64422904     0.05800
H1548       H  0.98492630  0.37968911  0.52415621     0.05800
C1549       C  0.65533913  0.32666668  0.73692196     0.03700
C1550       C  0.65365929  0.36207810  0.72484059     0.03700
C1551       C  0.62259575  0.37249499  0.70857612    -0.16800
C1552       C  0.59131247  0.35828286  0.71899644     0.03700
C1553       C  0.59073629  0.32424382  0.73319598     0.03700
C1554       C  0.62335559  0.30756496  0.73953057    -0.16800
H1555       H  0.62379695  0.28101609  0.74881068     0.05800
H1556       H  0.62167554  0.39750316  0.69575948     0.05800
C1557       C  0.81726437  0.24576780  0.59407544     0.03700
C1558       C  0.85166079  0.23179911  0.59969424     0.03700
C1559       C  0.85998876  0.21982321  0.63294772    -0.16800
C1560       C  0.85042767  0.24094543  0.65977264     0.03700
C1561       C  0.81609351  0.25435206  0.65800155     0.03700
C1562       C  0.79841398  0.25453956  0.62470580    -0.16800
H1563       H  0.77145723  0.26261180  0.62258705     0.05800
H1564       H  0.88331899  0.20434083  0.63720610     0.05800
O1565       O  0.88179718  0.26368786  0.71066784    -0.77000
C1566       C  0.94199659  0.25716064  0.80870983     0.84000
O1567       O  0.95915047  0.36670661  0.74719751    -0.78100
O1568       O  0.54934568  0.27841090  0.75159344    -0.79600
O1569       O  0.97663003  0.21762609  0.67575468    -0.79400
O1570       O  0.90792424  0.26285262  0.66000512    -0.78100
Zn1571     Zn  0.91937514  0.28967888  0.73895637     1.55700
O1572       O  0.50234486  0.20483516  0.72656976    -0.79400
Cd1573     Cd  0.95957805  0.26694403  0.67384805     1.59700
Cd1574     Cd  0.98048696  0.33042971  0.71433823     1.59600
O1575       O  0.98749140  0.29601504  0.63708995    -0.79400
O1576       O  0.96436749  0.28359909  0.72140261    -1.89900
Cd1577     Cd  0.99798899  0.25433347  0.75162328     1.59900
O1578       O  0.97767308  0.34599271  0.66280604    -0.79400
O1579       O  0.97384930  0.24983214  0.80182580    -0.78100
C1580       C  0.92677404  0.36691905  0.75304102     0.84500
C1581       C  0.88110090  0.25729064  0.67823365     0.84100
O1582       O  0.92198063  0.27106483  0.78613063    -0.77000
C1583       C  0.49286549  0.19656735  0.69545595     0.85000
O1584       O  0.90801440  0.34039016  0.74557407    -0.77100
C1585       C  0.98785178  0.32904153  0.63642164     0.85100
C1586       C  0.55549887  0.30782396  0.73721027     0.85400
O1587       O  0.53080769  0.32547774  0.72422740    -0.79500
O1588       O  0.53998011  0.39150836  0.70282495    -0.77000
C1589       C  0.94092286  0.44771051  0.74499212     0.84000
O1590       O  0.53707042  0.46097358  0.63255688    -0.78100
O1591       O  0.99644198  0.05602511  0.72106487    -0.79600
O1592       O  0.57249817  0.47700402  0.78636124    -0.79400
O1593       O  0.56858308  0.40434005  0.75102679    -0.78100
Zn1594     Zn  0.50456386  0.43237976  0.70146720     1.55700
O1595       O  0.52597576  0.00868033  0.79794083    -0.79400
Cd1596     Cd  0.57022764  0.45545854  0.73978779     1.59700
Cd1597     Cd  0.54438192  0.49428013  0.67528059     1.59600
O1598       O  0.61276144  0.45892789  0.70675453    -0.79400
O1599       O  0.52745818  0.47297766  0.71752920    -1.89900
Cd1600     Cd  0.99915229  0.50549605  0.74752044     1.59900
O1601       O  0.59581277  0.50539496  0.67806629    -0.79400
O1602       O  0.94960748  0.47908414  0.75307843    -0.78100
C1603       C  0.01204533  0.43954773  0.62899684     0.84500
C1604       C  0.56397358  0.38472825  0.72521662     0.84100
O1605       O  0.96085835  0.42846813  0.72748357    -0.77000
C1606       C  0.55550183  0.99524984  0.80714290     0.85000
O1607       O  0.98921695  0.43715901  0.65211317    -0.77100
C1608       C  0.61757561  0.48140415  0.68323942     0.85100
C1609       C  0.00882653  0.06398300  0.69116736     0.85400
O1610       O  0.52499049  0.04179515  0.67381329    -0.79500
O1611       O  0.95063374  0.13519704  0.52945923    -0.77000
C1612       C  0.55062853  0.19443742  0.00264365     0.84000
O1613       O  0.99644942  0.21845017  0.61542792    -0.78100
O1614       O  0.49793740  0.30335906  0.52591699    -0.79600
O1615       O  0.91990929  0.22798316  0.96490854    -0.79400
O1616       O  0.90330307  0.16497376  0.51711025    -0.78100
Zn1617     Zn  0.98355487  0.17584587  0.53920384     1.55700
O1618       O  0.96825159  0.25450051  0.94951187    -0.79400
Cd1619     Cd  0.91877318  0.21560709  0.51507223     1.59700
Cd1620     Cd  0.96261884  0.24080580  0.57792525     1.59600
O1621       O  0.88151282  0.23996671  0.54446840    -0.79400
O1622       O  0.96651940  0.22144285  0.53178736    -1.89900
Cd1623     Cd  0.99447209  0.25289570  0.00036901     1.59900
O1624       O  0.91272873  0.23155077  0.59228145    -0.79400
O1625       O  0.54379613  0.22659117  0.99630429    -0.78100
C1626       C  0.00246061  0.18602359  0.61518553     0.84500
C1627       C  0.91799137  0.13605002  0.52345565     0.84100
O1628       O  0.52859390  0.17452378  0.51666676    -0.77000
C1629       C  0.93798483  0.24186851  0.94179410     0.85000
O1630       O  0.99556373  0.16862272  0.58803444    -0.77100
C1631       C  0.88303065  0.23461129  0.57702372     0.85100
C1632       C  0.98564093  0.31332760  0.55519950     0.85400
O1633       O  0.96926916  0.29262067  0.57453191    -0.79500
C1634       C  0.67728330  0.49134016  0.65657678     0.03700
C1635       C  0.64345621  0.47650170  0.65599053     0.03700
C1636       C  0.62775519  0.46711182  0.62451692    -0.18400
C1637       C  0.63736217  0.98378390  0.59405320     0.03700
C1638       C  0.67317105  0.99456193  0.59227575     0.03700
C1639       C  0.69334222  0.49687783  0.62396835    -0.16800
H1640       H  0.71996485  0.50616514  0.62335155     0.05800
H1641       H  0.60246665  0.45460289  0.62532448     0.05800
O1642       O  0.53078073  0.11138672  0.49705946    -0.77000
C1643       C  0.93403379  0.05543988  0.00974884     0.84000
O1644       O  0.51599409  0.04830437  0.61241925    -0.78100
O1645       O  0.99465668  0.45223146  0.51924445    -0.79600
O1646       O  0.56860253  0.02011129  0.96301381    -0.79400
O1647       O  0.58327191  0.08979078  0.00778838    -0.78100
Zn1648     Zn  0.50841303  0.07780402  0.53109713     1.55700
O1649       O  0.51637328  0.50030128  0.94597059    -0.79400
Cd1650     Cd  0.57156651  0.03774551  0.51218111     1.59700
Cd1651     Cd  0.52605741  0.01231559  0.57388111     1.59600
O1652       O  0.60973272  0.01145707  0.54255112    -0.79400
O1653       O  0.52410979  0.03213085  0.52722732    -1.89900
Cd1654     Cd  0.99236862  0.00267047  0.99578072     1.59900
O1655       O  0.57627785  0.49430016  0.58507122    -0.79400
O1656       O  0.94071178  0.02571539  0.99631865    -0.78100
C1657       C  0.51838429  0.08106780  0.60990651     0.84500
C1658       C  0.56376948  0.11402617  0.49575394     0.84100
O1659       O  0.95842232  0.07362677  0.52263762    -0.77000
C1660       C  0.54846606  0.50711424  0.93989296     0.85000
O1661       O  0.01761670  0.09522543  0.57986009    -0.77100
C1662       C  0.60647910  0.99648601  0.57183839     0.85100
C1663       C  0.99345265  0.44719670  0.55209495     0.85400
O1664       O  0.49025031  0.47290999  0.57234700    -0.79500
C1665       C  0.00380848  0.16374745  0.67873530     0.03700
C1666       C  0.01808105  0.16576630  0.64498012     0.03700
C1667       C  0.53614187  0.13706784  0.63351919    -0.16800
C1668       C  0.52239340  0.10460392  0.64116117     0.03700
C1669       C  0.50848259  0.09971773  0.67527567     0.03700
C1670       C  0.50131758  0.13034274  0.69482519    -0.16800
H1671       H  0.49219647  0.12816451  0.72114367     0.05800
H1672       H  0.55076987  0.14004946  0.60985226     0.05800
C1673       C  0.64763228  0.17436119  0.98676444     0.03700
C1674       C  0.64241890  0.14032903  0.97236277     0.03700
C1675       C  0.60929819  0.13247353  0.95906037    -0.16800
C1676       C  0.58156321  0.14358014  0.47824009     0.03700
C1677       C  0.58356460  0.17764450  0.49201847     0.03700
C1678       C  0.61705969  0.19389539  0.99438145    -0.16800
H1679       H  0.61940757  0.22022168  0.00386367     0.05800
H1680       H  0.60553050  0.10863969  0.94445144     0.05800
C1681       C  0.92507826  0.74699952  0.34175973     0.03700
C1682       C  0.89056519  0.73366357  0.33957208     0.03700
C1683       C  0.87970044  0.71350626  0.36694333    -0.16800
C1684       C  0.88814848  0.72523996  0.40025935     0.03700
C1685       C  0.92231294  0.74021905  0.40572505     0.03700
C1686       C  0.94169987  0.74853421  0.37536428    -0.16800
H1687       H  0.96822673  0.75792974  0.37794353     0.05800
H1688       H  0.85571684  0.69890416  0.36283023     0.05800
C1689       C  0.73763687  0.83866600  0.42868767     0.03700
C1690       C  0.72484698  0.83671987  0.39370168     0.03700
C1691       C  0.70552079  0.86479346  0.38143622    -0.16800
C1692       C  0.71845398  0.89741135  0.38980992     0.03700
C1693       C  0.73014900  0.90243621  0.42488589     0.03700
C1694       C  0.73793088  0.87196140  0.44510811    -0.16800
H1695       H  0.74582343  0.87425983  0.47217340     0.05800
H1696       H  0.69121697  0.86173647  0.35697697     0.05800
C1697       C  0.90808510  0.93129443  0.25745629     0.03700
C1698       C  0.90913875  0.89666211  0.27021789     0.03700
C1699       C  0.88207173  0.88598573  0.29071983    -0.16800
C1700       C  0.84864394  0.89572469  0.28008254     0.03700
C1701       C  0.84406530  0.93019065  0.26609685     0.03700
C1702       C  0.87513817  0.94874736  0.25734542    -0.16800
H1703       H  0.87335830  0.97519739  0.24794930     0.05800
H1704       H  0.88542762  0.86156943  0.30460404     0.05800
O1705       O  0.85829998  0.72528175  0.45623633    -0.77000
C1706       C  0.80049923  0.74384651  0.05828221     0.84000
O1707       O  0.78133015  0.63150028  0.49151919    -0.78100
O1708       O  0.69175501  0.71875342  0.00258221    -0.79600
O1709       O  0.76869481  0.78704351  0.42851573    -0.79400
O1710       O  0.82712683  0.72946760  0.40783084    -0.78100
Zn1711     Zn  0.81940146  0.71092618  0.48851739     1.55700
O1712       O  0.73530703  0.79496799  0.47449934    -0.79400
Cd1713     Cd  0.77737704  0.73549894  0.42416150     1.59700
Cd1714     Cd  0.75677073  0.67005721  0.46164944     1.59600
O1715       O  0.74494324  0.71016014  0.38692068    -0.79400
O1716       O  0.77358316  0.71671932  0.47083913    -1.89900
Cd1717     Cd  0.74171641  0.74581661  0.00106431     1.59900
O1718       O  0.75796088  0.65873643  0.40924104    -0.79400
O1719       O  0.76831281  0.75120124  0.05142417    -0.78100
C1720       C  0.81289675  0.63306710  0.50195937     0.84500
C1721       C  0.85672781  0.72711504  0.42325918     0.84100
O1722       O  0.81940568  0.73111762  0.03504226    -0.77000
C1723       C  0.74874173  0.80586458  0.44609953     0.85000
O1724       O  0.82936318  0.66155227  0.49925360    -0.77100
C1725       C  0.74573131  0.67717450  0.38418325     0.85100
C1726       C  0.68362294  0.68969256  0.98798777     0.85400
O1727       O  0.70613459  0.67230410  0.47218134    -0.79500
O1728       O  0.85769524  0.75431298  0.28858712    -0.77000
C1729       C  0.79963667  0.76214308  0.19169893     0.84000
O1730       O  0.79186191  0.86722012  0.28037870    -0.78100
O1731       O  0.69598683  0.77827990  0.24298786    -0.79600
O1732       O  0.76930260  0.71219777  0.32479881    -0.79400
O1733       O  0.83592642  0.76172494  0.34076116    -0.78100
Zn1734     Zn  0.82203154  0.78663494  0.26414446     1.55700
O1735       O  0.74152321  0.70201548  0.27416765    -0.79400
Cd1736     Cd  0.78347311  0.76244203  0.32816453     1.59700
Cd1737     Cd  0.75756999  0.82710284  0.28742813     1.59600
O1738       O  0.75401125  0.78682313  0.36674482    -0.79400
O1739       O  0.77650582  0.78104443  0.28113963    -1.89900
Cd1740     Cd  0.74534736  0.75213446  0.24941837     1.59900
O1741       O  0.74358877  0.83402182  0.33634981    -0.79400
O1742       O  0.76987782  0.74966788  0.19991211    -0.78100
C1743       C  0.82443882  0.86506311  0.27662171     0.84500
C1744       C  0.86053887  0.75147383  0.32152572     0.84100
O1745       O  0.81889543  0.77758829  0.21390790    -0.77000
C1746       C  0.75279350  0.69200079  0.30434038     0.85000
O1747       O  0.83817895  0.83556213  0.27102536    -0.77100
C1748       C  0.74168651  0.81737926  0.36461589     0.85100
C1749       C  0.68924262  0.81055284  0.24784406     0.85400
O1750       O  0.71149876  0.83044013  0.26196575    -0.79500
O1751       O  0.70750190  0.89069114  0.24683513    -0.77000
C1752       C  0.80822833  0.94624254  0.26306261     0.84000
O1753       O  0.73248855  0.95300651  0.36271531    -0.78100
O1754       O  0.74641007  0.55216068  0.27184726    -0.79600
O1755       O  0.67407941  0.00507269  0.21639966    -0.79400
O1756       O  0.65973945  0.92143365  0.24088881    -0.78100
Zn1757     Zn  0.73264324  0.92468177  0.28031771     1.55700
O1758       O  0.72722246  0.49715217  0.19703465    -0.79400
Cd1759     Cd  0.67228411  0.97088382  0.25717899     1.59700
Cd1760     Cd  0.71796947  0.98924481  0.32493370     1.59600
O1761       O  0.63485292  0.98057854  0.29320001    -0.79400
O1762       O  0.71913924  0.97120950  0.27716012    -1.89900
Cd1763     Cd  0.75094707  0.00120808  0.24823482     1.59900
O1764       O  0.66645027  0.99789996  0.33867363    -0.79400
O1765       O  0.80224404  0.97718219  0.25166604    -0.78100
C1766       C  0.72449258  0.92117265  0.35927433     0.84500
C1767       C  0.67551527  0.89263075  0.23767573     0.84100
O1768       O  0.78327558  0.92773121  0.27343011    -0.77000
C1769       C  0.69419949  0.49930890  0.19125317     0.85000
O1770       O  0.72218606  0.90809937  0.32887167    -0.77100
C1771       C  0.63701516  0.98961858  0.32478984     0.85100
C1772       C  0.74620769  0.55809512  0.30475622     0.85400
O1773       O  0.74887879  0.53302712  0.32608883    -0.79500
C1774       C  0.74337883  0.65784591  0.31951082     0.03700
C1775       C  0.73034968  0.65768787  0.35374783     0.03700
C1776       C  0.71236465  0.62861426  0.36392940    -0.16800
C1777       C  0.72452919  0.59635093  0.35345885     0.03700
C1778       C  0.73974931  0.59346552  0.31994575     0.03700
C1779       C  0.74619654  0.62532221  0.30175635    -0.16800
H1780       H  0.75613760  0.62472922  0.27567969     0.05800
H1781       H  0.69818518  0.63042675  0.38800524     0.05800
O1782       O  0.69844147  0.61013235  0.48055464    -0.77000
C1783       C  0.80006700  0.55088700  0.99588036     0.84000
O1784       O  0.71559152  0.53978775  0.37993410    -0.78100
O1785       O  0.74343505  0.94626469  0.46914585    -0.79600
O1786       O  0.67145144  0.52563643  0.04010535    -0.79400
O1787       O  0.65002074  0.57945288  0.47660161    -0.78100
Zn1788     Zn  0.73013667  0.57180804  0.46247953     1.55700
O1789       O  0.71545531  0.98835611  0.04644864    -0.79400
Cd1790     Cd  0.66689441  0.53061985  0.48800187     1.59700
Cd1791     Cd  0.69972558  0.51164091  0.42239127     1.59600
O1792       O  0.63191700  0.49488508  0.46476985    -0.79400
O1793       O  0.71298968  0.52703837  0.46863922    -1.89900
Cd1794     Cd  0.74229918  0.49436461  0.49763863     1.59900
O1795       O  0.64818445  0.02077134  0.41728201    -0.79400
O1796       O  0.79271048  0.51929665  0.00396116    -0.78100
C1797       C  0.72554403  0.57099058  0.38284124     0.84500
C1798       C  0.66539842  0.60881279  0.47683661     0.84100
O1799       O  0.77763644  0.57010923  0.48102180    -0.77000
C1800       C  0.68835831  0.00377136  0.05822176     0.85000
O1801       O  0.73255706  0.58353747  0.41267460    -0.77100
C1802       C  0.62718455  0.50106805  0.43255547     0.85100
C1803       C  0.72843192  0.93810768  0.44001332     0.85400
O1804       O  0.71054943  0.96004864  0.42237874    -0.79500
C1805       C  0.83282898  0.60311469  0.51809837     0.03700
C1806       C  0.83365582  0.56825026  0.50580188     0.03700
C1807       C  0.86691055  0.55145723  0.00477620    -0.16800
C1808       C  0.89819358  0.57070279  0.01244683     0.03700
C1809       C  0.89414497  0.60495166  0.02649209     0.03700
C1810       C  0.86129460  0.61402609  0.03791172    -0.16800
H1811       H  0.85865934  0.63806483  0.05229573     0.05800
H1812       H  0.86851947  0.52488054  0.99596435     0.05800
C1813       C  0.57115073  0.99676681  0.34306735     0.03700
C1814       C  0.60660304  0.98580451  0.34856896     0.03700
C1815       C  0.61567634  0.97147982  0.38062878    -0.16800
C1816       C  0.60034346  0.48461187  0.40991370     0.03700
C1817       C  0.56572027  0.49731536  0.40704694     0.03700
C1818       C  0.55031583  0.00107248  0.37314011    -0.16800
H1819       H  0.52327634  0.00870124  0.37024256     0.05800
H1820       H  0.64128109  0.95968567  0.38389701     0.05800
C1821       C  0.51285898  0.91120493  0.10312300     0.03700
C1822       C  0.49909331  0.91236194  0.06858435     0.03700
C1823       C  0.99287281  0.87994036  0.05131599    -0.16800
C1824       C  0.99332845  0.84813394  0.07077816     0.03700
C1825       C  0.00236397  0.85007078  0.10695705     0.03700
C1826       C  0.01970329  0.87943061  0.11846157    -0.16800
H1827       H  0.03120214  0.87894556  0.14423237     0.05800
H1828       H  0.98497564  0.87968615  0.02414690     0.05800
C1829       C  0.65530940  0.82667925  0.23696734     0.03700
C1830       C  0.65362985  0.86208598  0.22487607     0.03700
C1831       C  0.62256832  0.87250042  0.20860626    -0.16800
C1832       C  0.59128372  0.85828701  0.21901993     0.03700
C1833       C  0.59070890  0.82425180  0.23322825     0.03700
C1834       C  0.62332741  0.80757672  0.23957539    -0.16800
H1835       H  0.62376903  0.78102989  0.24886107     0.05800
H1836       H  0.62165034  0.89750433  0.19578301     0.05800
C1837       C  0.81724324  0.74580442  0.09405882     0.03700
C1838       C  0.85163829  0.73182765  0.09966867     0.03700
C1839       C  0.85996962  0.71984112  0.13291736    -0.16800
C1840       C  0.85041494  0.74095476  0.15975130     0.03700
C1841       C  0.81608116  0.75436577  0.15798874     0.03700
C1842       C  0.79839859  0.75456874  0.12469454    -0.16800
H1843       H  0.77144253  0.76264457  0.12258181     0.05800
H1844       H  0.88329862  0.70435423  0.13716584     0.05800
O1845       O  0.88179095  0.76368099  0.21065194    -0.77000
C1846       C  0.94199530  0.75717819  0.30870920     0.84000
O1847       O  0.95912855  0.86670865  0.24718161    -0.78100
O1848       O  0.54932529  0.77841003  0.25160716    -0.79600
O1849       O  0.97661801  0.71762896  0.17576069    -0.79400
O1850       O  0.90791813  0.76285029  0.15998941    -0.78100
Zn1851     Zn  0.91936310  0.78967944  0.23894423     1.55700
O1852       O  0.50233785  0.70483480  0.22657109    -0.79400
Cd1853     Cd  0.95957101  0.76694638  0.17383874     1.59700
Cd1854     Cd  0.98047104  0.83043087  0.21433112     1.59600
O1855       O  0.98749711  0.79601472  0.13708310    -0.79400
O1856       O  0.96435467  0.78359995  0.22139322    -1.89900
Cd1857     Cd  0.99797433  0.75433367  0.25161951     1.59900
O1858       O  0.97768543  0.84599436  0.16279754    -0.79400
O1859       O  0.97384369  0.74983957  0.30182131    -0.78100
C1860       C  0.92675072  0.86692164  0.25301515     0.84500
C1861       C  0.88109351  0.75728844  0.17821649     0.84100
O1862       O  0.92197809  0.77108069  0.28612919    -0.77000
C1863       C  0.49285507  0.69656919  0.19545796     0.85000
O1864       O  0.90799258  0.84039279  0.24554333    -0.77100
C1865       C  0.98786670  0.82904157  0.13641507     0.85100
C1866       C  0.55547478  0.80782729  0.23723327     0.85400
O1867       O  0.53078359  0.82547785  0.22424697    -0.79500
O1868       O  0.53995932  0.89151287  0.20282009    -0.77000
C1869       C  0.94090219  0.94771211  0.24497058     0.84000
O1870       O  0.53709347  0.96097571  0.13256392    -0.78100
O1871       O  0.99641805  0.55602427  0.22105552    -0.79600
O1872       O  0.57248585  0.97699719  0.28636090    -0.79400
O1873       O  0.56853005  0.90433862  0.25104016    -0.78100
Zn1874     Zn  0.50454583  0.93238727  0.20144992     1.55700
O1875       O  0.52596330  0.50867205  0.29794244    -0.79400
Cd1876     Cd  0.57019744  0.95545272  0.23979066     1.59700
Cd1877     Cd  0.54438329  0.99429229  0.17528776     1.59600
O1878       O  0.61273124  0.95891093  0.20676064    -0.79400
O1879       O  0.52743748  0.97298327  0.21752462    -1.89900
Cd1880     Cd  0.99913497  0.00549725  0.24751787     1.59900
O1881       O  0.59581436  0.00541681  0.17812214    -0.79400
O1882       O  0.94959186  0.97908157  0.25306788    -0.78100
C1883       C  0.01206593  0.93955380  0.12898967     0.84500
C1884       C  0.56393862  0.88472987  0.22522572     0.84100
O1885       O  0.96083363  0.92847184  0.22745496    -0.77000
C1886       C  0.55548980  0.49524046  0.30714458     0.85000
O1887       O  0.98922064  0.93717516  0.15209023    -0.77100
C1888       C  0.61756214  0.98140761  0.18326956     0.85100
C1889       C  0.00880122  0.56398497  0.19115761     0.85400
O1890       O  0.52497488  0.54180216  0.17380481    -0.79500
O1891       O  0.95063986  0.63517782  0.02951789    -0.77000
C1892       C  0.55064335  0.69445127  0.50269510     0.84000
O1893       O  0.99640645  0.71845656  0.11544563    -0.78100
O1894       O  0.49795577  0.80335570  0.02590192    -0.79600
O1895       O  0.91992017  0.72803391  0.46492294    -0.79400
O1896       O  0.90331908  0.66494078  0.01709447    -0.78100
Zn1897     Zn  0.98356720  0.67584240  0.03919196     1.55700
O1898       O  0.96828158  0.75450683  0.44951601    -0.79400
Cd1899     Cd  0.91877320  0.71557359  0.01505808     1.59700
Cd1900     Cd  0.96260749  0.74081920  0.07791757     1.59600
O1901       O  0.88148771  0.73992332  0.04443030    -0.79400
O1902       O  0.96651586  0.72143788  0.03178250    -1.89900
Cd1903     Cd  0.99448154  0.75290183  0.50038353     1.59900
O1904       O  0.91270565  0.73161787  0.09226240    -0.79400
O1905       O  0.54381089  0.72660283  0.49634402    -0.78100
C1906       C  0.00247125  0.68604063  0.11518026     0.84500
C1907       C  0.91800288  0.63602395  0.02347845     0.84100
O1908       O  0.52858328  0.67450797  0.01661729    -0.77000
C1909       C  0.93800491  0.74189687  0.44180217     0.85000
O1910       O  0.99562787  0.66865719  0.08800684    -0.77100
C1911       C  0.88300751  0.73463376  0.07699587     0.85100
C1912       C  0.98567092  0.81332746  0.05518882     0.85400
O1913       O  0.96929558  0.79262584  0.07452203    -0.79500
C1914       C  0.67726720  0.99133232  0.15659618     0.03700
C1915       C  0.64343456  0.97650712  0.15601302     0.03700
C1916       C  0.62772830  0.96712004  0.12454184    -0.18400
C1917       C  0.63734533  0.48377646  0.09407291     0.03700
C1918       C  0.67315890  0.49453824  0.09229356     0.03700
C1919       C  0.69332929  0.99685466  0.12398667    -0.16800
H1920       H  0.71995483  0.00613343  0.12336872     0.05800
H1921       H  0.60243664  0.95461966  0.12535122     0.05800
O1922       O  0.53078844  0.61137600  0.99704115    -0.77000
C1923       C  0.93403993  0.55546078  0.50974601     0.84000
O1924       O  0.51595264  0.54831064  0.11240993    -0.78100
O1925       O  0.99468349  0.95222529  0.01923750    -0.79600
O1926       O  0.56861873  0.52013754  0.46300137    -0.79400
O1927       O  0.58326378  0.58981237  0.50782952    -0.78100
Zn1928     Zn  0.50841076  0.57780235  0.03108100     1.55700
O1929       O  0.51638732  0.00029876  0.44598736    -0.79400
Cd1930     Cd  0.57156643  0.53772676  0.01218250     1.59700
Cd1931     Cd  0.52604429  0.51232223  0.07388032     1.59600
O1932       O  0.60972977  0.51142633  0.04255017    -0.79400
O1933       O  0.52410618  0.53212854  0.02722315    -1.89900
Cd1934     Cd  0.99237051  0.50267932  0.49578597     1.59900
O1935       O  0.57626777  0.99432293  0.08508580    -0.79400
O1936       O  0.94072444  0.52574509  0.49630020    -0.78100
C1937       C  0.51834919  0.58107341  0.10989592     0.84500
C1938       C  0.56377684  0.61400839  0.99571940     0.84100
O1939       O  0.95842371  0.57361374  0.02261297    -0.77000
C1940       C  0.54847477  0.00712193  0.43989525     0.85000
O1941       O  0.01759483  0.59523021  0.07984846    -0.77100
C1942       C  0.60646957  0.49648118  0.07184991     0.85100
C1943       C  0.99347650  0.94719106  0.05208770     0.85400
O1944       O  0.49025432  0.97290272  0.07233810    -0.79500
C1945       C  0.00379372  0.66375107  0.17873255     0.03700
C1946       C  0.01807293  0.66577053  0.14497874     0.03700
C1947       C  0.53612462  0.63706504  0.13351912    -0.16800
C1948       C  0.52235785  0.60460723  0.14115178     0.03700
C1949       C  0.50844781  0.59971984  0.17526558     0.03700
C1950       C  0.50129009  0.63034480  0.19481787    -0.16800
H1951       H  0.49216833  0.62816628  0.22113611     0.05800
H1952       H  0.55076259  0.64004115  0.10985782     0.05800
C1953       C  0.64764228  0.67435399  0.48678686     0.03700
C1954       C  0.64241298  0.64032349  0.47238675     0.03700
C1955       C  0.60928623  0.63248213  0.45909145    -0.16800
C1956       C  0.58156661  0.64356471  0.97820141     0.03700
C1957       C  0.58355214  0.67763592  0.99196734     0.03700
C1958       C  0.61707777  0.69389489  0.49442253    -0.16800
H1959       H  0.61943631  0.72021993  0.50390599     0.05800
H1960       H  0.60550449  0.60865385  0.44447689     0.05800
C1961       C  0.92507273  0.74697453  0.84175533     0.03700
C1962       C  0.89055418  0.73365104  0.83956284     0.03700
C1963       C  0.87967307  0.71350302  0.86693417    -0.16800
C1964       C  0.88812186  0.72523522  0.90025052     0.03700
C1965       C  0.92229310  0.74019819  0.90571851     0.03700
C1966       C  0.94168815  0.74850467  0.87536155    -0.16800
H1967       H  0.96821784  0.75789128  0.87794522     0.05800
H1968       H  0.85568300  0.69891227  0.86281765     0.05800
C1969       C  0.73757489  0.83866581  0.92865778     0.03700
C1970       C  0.72479084  0.83672179  0.89366904     0.03700
C1971       C  0.70546223  0.86479534  0.88140397    -0.16800
C1972       C  0.71838346  0.89741586  0.88979049     0.03700
C1973       C  0.73007542  0.90243578  0.92486826     0.03700
C1974       C  0.73786035  0.87195834  0.94508363    -0.16800
H1975       H  0.74575283  0.87425330  0.97214926     0.05800
H1976       H  0.69116629  0.86174197  0.85693976     0.05800
C1977       C  0.90810650  0.93129087  0.75747983     0.03700
C1978       C  0.90916350  0.89666017  0.77024607     0.03700
C1979       C  0.88209536  0.88598318  0.79074808    -0.16800
C1980       C  0.84866567  0.89571743  0.78010951     0.03700
C1981       C  0.84408428  0.93018016  0.76611448     0.03700
C1982       C  0.87515620  0.94873824  0.75736073    -0.16800
H1983       H  0.87337342  0.97518544  0.74795705     0.05800
H1984       H  0.88545309  0.86156846  0.80463455     0.05800
O1985       O  0.85827859  0.72530313  0.95623093    -0.77000
C1986       C  0.80052791  0.74380638  0.55829509     0.84000
O1987       O  0.78132920  0.63150389  0.99154234    -0.78100
O1988       O  0.69178440  0.71873200  0.50258894    -0.79600
O1989       O  0.76865220  0.78704961  0.92849648    -0.79400
O1990       O  0.82709908  0.72946291  0.90782627    -0.78100
Zn1991     Zn  0.81938347  0.71094033  0.98851806     1.55700
O1992       O  0.73525746  0.79497372  0.97447399    -0.79400
Cd1993     Cd  0.77734873  0.73550211  0.92416000     1.59700
Cd1994     Cd  0.75676414  0.67006179  0.96167299     1.59600
O1995       O  0.74491717  0.71014635  0.88693125    -0.79400
O1996       O  0.77356366  0.71673160  0.97084245    -1.89900
Cd1997     Cd  0.74174643  0.74579728  0.50107238     1.59900
O1998       O  0.75793213  0.65872816  0.90926899    -0.79400
O1999       O  0.76834259  0.75116152  0.55143333    -0.78100
C2000       C  0.81289599  0.63307260  0.00198210     0.84500
C2001       C  0.85670234  0.72711829  0.92325252     0.84100
O2002       O  0.81943926  0.73108360  0.53505459    -0.77000
C2003       C  0.74868839  0.80586765  0.94607196     0.85000
O2004       O  0.82935838  0.66156151  0.99927578    -0.77100
C2005       C  0.74570816  0.67715999  0.88420393     0.85100
C2006       C  0.68363740  0.68967806  0.48798689     0.85400
O2007       O  0.70613386  0.67231809  0.97220506    -0.79500
O2008       O  0.85768323  0.75428670  0.78857602    -0.77000
C2009       C  0.79964783  0.76213800  0.69170844     0.84000
O2010       O  0.79188250  0.86721082  0.78039065    -0.78100
O2011       O  0.69600215  0.77825672  0.74298409    -0.79600
O2012       O  0.76932761  0.71218622  0.82482900    -0.79400
O2013       O  0.83594150  0.76176282  0.84075358    -0.78100
Zn2014     Zn  0.82203497  0.78663209  0.76414829     1.55700
O2015       O  0.74153496  0.70200791  0.77420268    -0.79400
Cd2016     Cd  0.78348047  0.76244477  0.82817132     1.59700
Cd2017     Cd  0.75757588  0.82709635  0.78741059     1.59600
O2018       O  0.75399736  0.78684000  0.86672915    -0.79400
O2019       O  0.77651127  0.78103579  0.78114471    -1.89900
Cd2020     Cd  0.74536164  0.75211387  0.74943386     1.59900
O2021       O  0.74353145  0.83401791  0.83631445    -0.79400
O2022       O  0.76990697  0.74963033  0.69993762    -0.78100
C2023       C  0.82446188  0.86505304  0.77665025     0.84500
C2024       C  0.86053855  0.75147575  0.82151620     0.84100
O2025       O  0.81889662  0.77761809  0.71390219    -0.77000
C2026       C  0.75281071  0.69199135  0.80437244     0.85000
O2027       O  0.83820259  0.83555100  0.77106045    -0.77100
C2028       C  0.74163964  0.81738288  0.86458609     0.85100
C2029       C  0.68927087  0.81053839  0.74780205     0.85400
O2030       O  0.71153577  0.83043236  0.76189844    -0.79500
O2031       O  0.70752580  0.89068824  0.74681714    -0.77000
C2032       C  0.80824496  0.94622923  0.76307060     0.84000
O2033       O  0.73242445  0.95301483  0.86271060    -0.78100
O2034       O  0.74643810  0.55215551  0.77184406    -0.79600
O2035       O  0.67408992  0.00507032  0.71638175    -0.79400
O2036       O  0.65976268  0.92142604  0.74085994    -0.78100
Zn2037     Zn  0.73265256  0.92468141  0.78030910     1.55700
O2038       O  0.72723652  0.49715828  0.69701889    -0.79400
Cd2039     Cd  0.67229573  0.97087683  0.75715877     1.59700
Cd2040     Cd  0.71796825  0.98925808  0.82491130     1.59600
O2041       O  0.63486594  0.98056085  0.79318963    -0.79400
O2042       O  0.71915039  0.97120985  0.77714107    -1.89900
Cd2043     Cd  0.75096610  0.00120394  0.74822043     1.59900
O2044       O  0.66645810  0.99798307  0.83862648    -0.79400
O2045       O  0.80225966  0.97716323  0.75165701    -0.78100
C2046       C  0.72443946  0.92117930  0.85926129     0.84500
C2047       C  0.67554128  0.89262439  0.73764866     0.84100
O2048       O  0.78329171  0.92772180  0.77344492    -0.77000
C2049       C  0.69421308  0.49931341  0.69123581     0.85000
O2050       O  0.72216294  0.90810543  0.82885723    -0.77100
C2051       C  0.63702665  0.98965969  0.82476300     0.85100
C2052       C  0.74623798  0.55808531  0.80475439     0.85400
O2053       O  0.74890943  0.53301343  0.82608238    -0.79500
C2054       C  0.74339383  0.65783343  0.81953443     0.03700
C2055       C  0.73034813  0.65766633  0.85376412     0.03700
C2056       C  0.71237043  0.62858385  0.86393549    -0.16800
C2057       C  0.72454693  0.59632672  0.85345922     0.03700
C2058       C  0.73977498  0.59345209  0.81995044     0.03700
C2059       C  0.74622279  0.62531457  0.80177247    -0.16800
H2060       H  0.75617267  0.62473009  0.77569912     0.05800
H2061       H  0.69818560  0.63038484  0.88800920     0.05800
O2062       O  0.69845468  0.61014581  0.98049841    -0.77000
C2063       C  0.80007405  0.55088801  0.49585722     0.84000
O2064       O  0.71559003  0.53977049  0.87993536    -0.78100
O2065       O  0.74339710  0.94626192  0.96912430    -0.79600
O2066       O  0.67145207  0.52563456  0.54007227    -0.79400
O2067       O  0.65002728  0.57946614  0.97664943    -0.78100
Zn2068     Zn  0.73015193  0.57180362  0.96247287     1.55700
O2069       O  0.71547808  0.98838335  0.54644305    -0.79400
Cd2070     Cd  0.66689835  0.53063311  0.98803554     1.59700
Cd2071     Cd  0.69970439  0.51165614  0.92240704     1.59600
O2072       O  0.63191701  0.49491393  0.96478691    -0.79400
O2073       O  0.71298969  0.52704321  0.96865516    -1.89900
Cd2074     Cd  0.74228433  0.49435347  0.99764482     1.59900
O2075       O  0.64817390  0.02086842  0.91733550    -0.79400
O2076       O  0.79272419  0.51929890  0.50394268    -0.78100
C2077       C  0.72557078  0.57096461  0.88283745     0.84500
C2078       C  0.66540747  0.60882382  0.97683077     0.84100
O2079       O  0.77763849  0.57011160  0.98103672    -0.77000
C2080       C  0.68837056  0.00378964  0.55820304     0.85000
O2081       O  0.73260202  0.58351016  0.91266700    -0.77100
C2082       C  0.62718317  0.50113301  0.93257956     0.85100
C2083       C  0.72836887  0.93810694  0.94000208     0.85400
O2084       O  0.71047558  0.96005076  0.92238126    -0.79500
C2085       C  0.83283220  0.60311622  0.01811631     0.03700
C2086       C  0.83364992  0.56824567  0.00583013     0.03700
C2087       C  0.86692009  0.55146949  0.50474842    -0.16800
C2088       C  0.89819792  0.57072203  0.51242454     0.03700
C2089       C  0.89413933  0.60497170  0.52646420     0.03700
C2090       C  0.86128894  0.61402925  0.53789467    -0.16800
H2091       H  0.85864672  0.63806372  0.55228424     0.05800
H2092       H  0.86853567  0.52489288  0.49593783     0.05800
C2093       C  0.57116328  0.99678609  0.84306282     0.03700
C2094       C  0.60662699  0.98585855  0.84856039     0.03700
C2095       C  0.61572719  0.97157009  0.88062847    -0.16800
C2096       C  0.60036763  0.48467300  0.90991119     0.03700
C2097       C  0.56572741  0.49733173  0.90704363     0.03700
C2098       C  0.55032333  0.00107374  0.87313549    -0.16800
H2099       H  0.52327577  0.00867402  0.87023622     0.05800
H2100       H  0.64134656  0.95980817  0.88390072     0.05800
C2101       C  0.51282921  0.91120336  0.60312673     0.03700
C2102       C  0.49905663  0.91236434  0.56859109     0.03700
C2103       C  0.99282785  0.87994316  0.55132390    -0.16800
C2104       C  0.99328874  0.84813629  0.57078652     0.03700
C2105       C  0.00233835  0.85007129  0.60696088     0.03700
C2106       C  0.01968158  0.87942922  0.61846165    -0.16800
H2107       H  0.03118701  0.87894334  0.64422908     0.05800
H2108       H  0.98492609  0.87968916  0.52415626     0.05800
C2109       C  0.65533910  0.82666670  0.73692194     0.03700
C2110       C  0.65365926  0.86207811  0.72484060     0.03700
C2111       C  0.62259575  0.87249501  0.70857607    -0.16800
C2112       C  0.59131246  0.85828287  0.71899642     0.03700
C2113       C  0.59073628  0.82424384  0.73319596     0.03700
C2114       C  0.62335558  0.80756493  0.73953045    -0.16800
H2115       H  0.62379695  0.78101605  0.74881041     0.05800
H2116       H  0.62167554  0.89750313  0.69575943     0.05800
C2117       C  0.81726435  0.74576781  0.59407542     0.03700
C2118       C  0.85166076  0.73179913  0.59969423     0.03700
C2119       C  0.85998868  0.71982316  0.63294770    -0.16800
C2120       C  0.85042757  0.74094530  0.65977266     0.03700
C2121       C  0.81609340  0.75435193  0.65800154     0.03700
C2122       C  0.79841392  0.75453958  0.62470577    -0.16800
H2123       H  0.77145718  0.76261188  0.62258703     0.05800
H2124       H  0.88331889  0.70434077  0.63720607     0.05800
O2125       O  0.88179721  0.76368765  0.71066788    -0.77000
C2126       C  0.94199658  0.75716072  0.80870984     0.84000
O2127       O  0.95915046  0.86670666  0.74719753    -0.78100
O2128       O  0.54934569  0.77841090  0.75159340    -0.79600
O2129       O  0.97663012  0.71762616  0.67575466    -0.79400
O2130       O  0.90792409  0.76285266  0.66000507    -0.78100
Zn2131     Zn  0.91937519  0.78967882  0.73895635     1.55700
O2132       O  0.50234488  0.70483508  0.72656977    -0.79400
Cd2133     Cd  0.95957794  0.76694406  0.67384805     1.59700
Cd2134     Cd  0.98048689  0.83042979  0.71433822     1.59600
O2135       O  0.98749124  0.79601504  0.63708993    -0.79400
O2136       O  0.96436750  0.78359914  0.72140258    -1.89900
Cd2137     Cd  0.99798893  0.75433347  0.75162326     1.59900
O2138       O  0.97767313  0.84599273  0.66280603    -0.79400
O2139       O  0.97384927  0.74983219  0.80182581    -0.78100
C2140       C  0.92677404  0.86691908  0.75304104     0.84500
C2141       C  0.88110082  0.75729055  0.67823366     0.84100
O2142       O  0.92198062  0.77106490  0.78613064    -0.77000
C2143       C  0.49286548  0.69656731  0.69545596     0.85000
O2144       O  0.90801442  0.84039018  0.74557405    -0.77100
C2145       C  0.98785175  0.82904152  0.63642163     0.85100
C2146       C  0.55549888  0.80782398  0.73721027     0.85400
O2147       O  0.53080771  0.82547778  0.72422741    -0.79500
O2148       O  0.53998016  0.89150844  0.70282490    -0.77000
C2149       C  0.94092291  0.94771055  0.74499214     0.84000
O2150       O  0.53707038  0.96097361  0.63255687    -0.78100
O2151       O  0.99644206  0.55602513  0.72106489    -0.79600
O2152       O  0.57249812  0.97700404  0.78636123    -0.79400
O2153       O  0.56858301  0.90434000  0.75102684    -0.78100
Zn2154     Zn  0.50456382  0.93237979  0.70146721     1.55700
O2155       O  0.52597580  0.50868032  0.79794082    -0.79400
Cd2156     Cd  0.57022758  0.95545854  0.73978783     1.59700
Cd2157     Cd  0.54438183  0.99428012  0.67528058     1.59600
O2158       O  0.61276149  0.95892794  0.70675471    -0.79400
O2159       O  0.52745816  0.97297763  0.71752917    -1.89900
Cd2160     Cd  0.99915228  0.00549602  0.74752042     1.59900
O2161       O  0.59581269  0.00539483  0.67806625    -0.79400
O2162       O  0.94960750  0.97908417  0.75307844    -0.78100
C2163       C  0.01204530  0.93954774  0.62899684     0.84500
C2164       C  0.56397358  0.88472828  0.72521660     0.84100
O2165       O  0.96085844  0.92846819  0.72748359    -0.77000
C2166       C  0.55550188  0.49524985  0.80714289     0.85000
O2167       O  0.98921694  0.93715891  0.65211317    -0.77100
C2168       C  0.61757556  0.98140406  0.68323944     0.85100
C2169       C  0.00882658  0.56398300  0.69116735     0.85400
O2170       O  0.52499057  0.54179518  0.67381333    -0.79500
O2171       O  0.95063369  0.63519707  0.52945906    -0.77000
C2172       C  0.55062846  0.69443739  0.00264358     0.84000
O2173       O  0.99644947  0.71845017  0.61542785    -0.78100
O2174       O  0.49793734  0.80335916  0.52591695    -0.79600
O2175       O  0.91990928  0.72798321  0.96490854    -0.79400
O2176       O  0.90330297  0.66497378  0.51711027    -0.78100
Zn2177     Zn  0.98355479  0.67584593  0.53920379     1.55700
O2178       O  0.96825158  0.75450058  0.94951187    -0.79400
Cd2179     Cd  0.91877308  0.71560704  0.51507218     1.59700
Cd2180     Cd  0.96261875  0.74080584  0.57792526     1.59600
O2181       O  0.88151283  0.73996676  0.54446841    -0.79400
O2182       O  0.96651927  0.72144291  0.53178736    -1.89900
Cd2183     Cd  0.99447211  0.75289560  0.00036901     1.59900
O2184       O  0.91272869  0.73155059  0.59228146    -0.79400
O2185       O  0.54379608  0.72659117  0.99630432    -0.78100
C2186       C  0.00246065  0.68602358  0.61518546     0.84500
C2187       C  0.91799130  0.63605005  0.52345560     0.84100
O2188       O  0.52859384  0.67452388  0.51666658    -0.77000
C2189       C  0.93798481  0.74186859  0.94179411     0.85000
O2190       O  0.99556375  0.66862271  0.58803438    -0.77100
C2191       C  0.88303063  0.73461123  0.57702372     0.85100
C2192       C  0.98564084  0.81332766  0.55519949     0.85400
O2193       O  0.96926899  0.79262076  0.57453186    -0.79500
C2194       C  0.67728326  0.99134005  0.65657680     0.03700
C2195       C  0.64345619  0.97650155  0.65599054     0.03700
C2196       C  0.62775519  0.96711168  0.62451689    -0.18400
C2197       C  0.63736217  0.48378395  0.59405320     0.03700
C2198       C  0.67317107  0.49456194  0.59227574     0.03700
C2199       C  0.69334221  0.99687773  0.62396837    -0.16800
H2200       H  0.71996481  0.00616504  0.62335158     0.05800
H2201       H  0.60246668  0.95460274  0.62532441     0.05800
O2202       O  0.53078071  0.61138677  0.49705949    -0.77000
C2203       C  0.93403378  0.55543990  0.00974885     0.84000
O2204       O  0.51599398  0.54830433  0.61241928    -0.78100
O2205       O  0.99465671  0.95223155  0.51924445    -0.79600
O2206       O  0.56860254  0.52011132  0.96301380    -0.79400
O2207       O  0.58327200  0.58979084  0.00778840    -0.78100
Zn2208     Zn  0.50841295  0.57780402  0.53109712     1.55700
O2209       O  0.51637325  0.00030129  0.94597060    -0.79400
Cd2210     Cd  0.57156647  0.53774558  0.51218111     1.59700
Cd2211     Cd  0.52605743  0.51231559  0.57388112     1.59600
O2212       O  0.60973272  0.51145715  0.54255112    -0.79400
O2213       O  0.52410974  0.53213080  0.52722730    -1.89900
Cd2214     Cd  0.99236855  0.50267055  0.99578073     1.59900
O2215       O  0.57627784  0.99430022  0.58507127    -0.79400
O2216       O  0.94071169  0.52571541  0.99631862    -0.78100
C2217       C  0.51838420  0.58106777  0.60990652     0.84500
C2218       C  0.56376945  0.61402625  0.49575396     0.84100
O2219       O  0.95842235  0.57362678  0.52263756    -0.77000
C2220       C  0.54846603  0.00711426  0.93989297     0.85000
O2221       O  0.01761682  0.59522539  0.57986009    -0.77100
C2222       C  0.60647912  0.49648602  0.57183837     0.85100
C2223       C  0.99345267  0.94719674  0.55209495     0.85400
O2224       O  0.49025036  0.97291001  0.57234702    -0.79500
C2225       C  0.00380838  0.66374742  0.67873524     0.03700
C2226       C  0.01808102  0.66576628  0.64498008     0.03700
C2227       C  0.53614183  0.63706782  0.63351917    -0.16800
C2228       C  0.52239335  0.60460390  0.64116118     0.03700
C2229       C  0.50848250  0.59971771  0.67527565     0.03700
C2230       C  0.50131744  0.63034272  0.69482515    -0.16800
H2231       H  0.49219627  0.62816448  0.72114364     0.05800
H2232       H  0.55076979  0.64004940  0.60985222     0.05800
C2233       C  0.64763230  0.67436124  0.98676443     0.03700
C2234       C  0.64241892  0.64032907  0.97236274     0.03700
C2235       C  0.60929821  0.63247355  0.95906038    -0.16800
C2236       C  0.58156318  0.64358021  0.47824008     0.03700
C2237       C  0.58356462  0.67764457  0.49201847     0.03700
C2238       C  0.61705968  0.69389540  0.99438144    -0.16800
H2239       H  0.61940755  0.72022174  0.00386368     0.05800
H2240       H  0.60553054  0.60863963  0.94445149     0.05800
loop_ 
_geom_bond_atom_site_label_1 
_geom_bond_atom_site_label_2 
_geom_bond_distance 
_geom_bond_site_symmetry_2 
_ccdc_geom_bond_type 
C1            C2   1.421       .  A
C1            C6   1.431       .  A
C1          C166   1.493       .  S
C2            C3   1.379       .  A
C2           C64   1.499       .  S
C3            C4   1.393       .  A
C3            H8   1.087       .  S
C4            C5   1.443       .  A
C4           C41   1.515       .  S
C5            C6   1.435       .  A
C5          C229   1.503       .  S
C6            H7   1.083       .  S
C9           C10   1.426       .  A
C9           C14   1.433       .  A
C9           C43   1.488       .  S
C10          C11   1.389       .  A
C10          C68   1.506       .  S
C11          C12   1.387       .  A
C11          H16   1.086       .  S
C12          C13   1.427       .  A
C12          C86   1.510       .  S
C13          C14   1.436       .  A
C13         C123   1.498       .  S
C14          H15   1.083       .  S
C17          C18   1.422       .  A
C17          C22   1.434       .  A
C17         C189   1.497       .  S
C18          C19   1.380       .  A
C18         C180   1.496       .  S
C19          C20   1.390       .  A
C19          H24   1.088       .  S
C20          C21   1.442       .  A
C20          C63   1.507       .  S
C21          C22   1.436       .  A
C21          C72   1.512       .  S
C22          H23   1.083       .  S
O25          C41   1.272       .  A
O25         Zn31   2.039       .  S
C26         C157   1.509       .  S
C26          O42   1.266       .  A
C26          O39   1.290       .  A
O27          C40   1.270       .  A
O27         Cd34   2.090       .  S
O28          C46   1.290   1_554  A
O28         Cd37   2.183       .  S
O29          C43   1.265       .  A
O29         Cd33   2.024       .  S
O30          C41   1.274       .  A
O30         Cd33   2.038       .  S
Zn31         O44   1.983       .  S
Zn31        O322   1.956       .  S
Zn31         O36   1.885       .  S
O32          C43   1.289       .  A
O32        Cd317   2.163       .  S
Cd33         O35   2.118       .  S
Cd33         O36   1.944       .  S
Cd34         O38   2.068       .  S
Cd34         O47   1.997       .  S
Cd34         O36   1.941       .  S
O35          C45   1.277       .  A
O36        Cd317   2.046       .  S
Cd37         O39   2.182       .  S
Cd37        O312   2.163   1_554  S
Cd37        O316   2.046   1_554  S
O38          C45   1.278       .  A
C40         C125   1.511       .  S
C40          O44   1.271       .  A
O42        Zn311   1.956   1_554  S
C45          C95   1.503       .  S
C46         C553   1.502       .  S
C46         O327   1.262       .  A
O47         C326   1.263       .  A
O48          C64   1.275       .  A
O48         Zn54   2.063       .  S
C49         C161   1.488       .  S
C49          O65   1.267       .  A
C49          O62   1.284       .  A
O50          C63   1.265       .  A
O50         Cd57   2.050       .  S
O51          C69   1.287       .  A
O51         Cd60   2.157       .  S
O52          C66   1.268       .  A
O52         Cd56   2.015       .  S
O53          C64   1.278       .  A
O53         Cd56   2.061       .  S
Zn54         O65   1.968       .  S
Zn54         O67   2.001       .  S
Zn54         O59   1.892       .  S
O55          C66   1.289       .  A
O55         Cd60   2.158       .  S
Cd56         O58   2.112       .  S
Cd56         O59   1.959       .  S
Cd57         O61   1.990       .  S
Cd57         O70   2.007       .  S
Cd57         O59   1.938       .  S
O58          C68   1.272       .  A
O59         Cd60   2.026       .  S
Cd60         O62   2.148       .  S
O61          C68   1.265       .  A
C63          O67   1.276       .  A
C66          C94   1.486       .  S
C69         C149   1.495       .  S
C69          O70   1.262       .  A
O71          C87   1.272       .  A
O71         Zn77   2.064       .  S
C72          O88   1.265       .  A
C72          O85   1.289       .  A
O73          C86   1.271       .  A
O73         Cd80   2.082       .  S
O74          C92   1.289       .  A
O74        Cd643   2.176       .  S
O75         C649   1.273       .  A
O75         Cd79   2.049       .  S
O76          C87   1.274       .  A
O76         Cd79   2.062       .  S
Zn77         O88   1.971       .  S
Zn77         O90   2.023       .  S
Zn77         O82   1.871       .  S
O78          C89   1.285       .  A
O78        Cd643   2.159   1_565  S
Cd79         O81   2.055       .  S
Cd79         O82   1.940       .  S
Cd80         O84   2.087       .  S
Cd80        O653   2.061       .  S
Cd80         O82   1.970       .  S
O81          C91   1.267       .  A
O82         Cd83   2.029       .  S
Cd83         O85   2.179       .  S
Cd83        O634   2.176       .  S
Cd83        O638   2.159       .  S
O84          C91   1.280       .  A
C86          O90   1.277       .  A
C87         C150   1.522       .  S
C89         C794   1.504       .  S
C89         O635   1.273   1_565  A
C91         C134   1.507       .  S
C92          C98   1.509       .  S
C92          O93   1.269       .  A
O93        Cd640   2.061   1_545  S
C94          C95   1.421       .  A
C94          C99   1.436       .  A
C95          C96   1.376       .  A
C96          C97   1.394       .  A
C96         H101   1.088       .  S
C97          C98   1.433       .  A
C97         C117   1.493       .  S
C98          C99   1.436       .  A
C99         H100   1.083       .  S
O102        C118   1.274       .  A
O102       Zn108   2.050       .  S
C103        C406   1.494   1_556  S
C103        O116   1.288   1_556  A
C103        O399   1.263       .  A
O104        C117   1.266       .  A
O104       Cd111   2.062       .  S
O105        C123   1.289       .  A
O105       Cd674   2.159       .  S
O106        C680   1.264       .  A
O106       Cd390   2.018   1_554  S
O107        C118   1.276       .  A
O107       Cd110   2.036       .  S
Zn108       O119   1.944       .  S
Zn108       O121   1.973       .  S
Zn108       O113   1.862       .  S
O109        C120   1.291       .  A
O109       Cd954   2.175   1_554  S
Cd110       O112   2.109   1_545  S
Cd110       O386   2.018       .  S
Cd110       O113   1.941       .  S
Cd111       O675   2.016       .  S
Cd111       O684   2.033   1_545  S
Cd111       O113   1.936       .  S
O112        C122   1.272   1_565  A
O113       Cd114   2.010   1_545  S
Cd114       O665   2.159       .  S
Cd114       O949   2.175       .  S
Cd114       O396   2.169   1_565  S
O115        C682   1.261       .  A
O115       Cd671   2.016       .  S
O116       Cd394   2.169   1_544  S
C117        O121   1.271       .  A
C118        C274   1.510       .  S
O119        C383   1.263       .  A
C120        C798   1.490       .  S
C120        O666   1.264       .  A
C122        C136   1.478   1_545  S
C122        O675   1.261       .  A
C123        O124   1.275       .  A
O124       Cd671   2.033       .  S
C125        C126   1.427       .  A
C125        C410   1.384       .  A
C126        C407   1.434       .  A
C126        C383   1.494       .  S
C127        C128   1.436       .  A
C127        C406   1.434       .  A
C127        H132   1.083   1_554  S
C128        C129   1.439       .  A
C128        C523   1.503       .  S
C129        C130   1.391       .  A
C129        C227   1.512       .  S
C130        C405   1.384       .  A
C130        H131   1.087       .  S
C133        C134   1.437       .  A
C133        C138   1.433       .  A
C133        C766   1.497       .  S
C134        C135   1.388       .  A
C135        C696   1.382       .  A
C135        H140   1.088       .  S
C136        C137   1.419       .  A
C136        C695   1.382       .  A
C137        C698   1.428   1_565  A
C137        C820   1.491   1_565  S
C138        C697   1.428       .  A
C138        H139   1.083       .  S
C141        C142   1.421   1_455  A
C141       C1266   1.381       .  A
C141       C1323   1.482       .  S
C142       C1263   1.435       .  A
C142       C1383   1.498       .  S
C143        C144   1.435       .  A
C143       C1262   1.435       .  A
C143        H148   1.083       .  S
C144        C145   1.430       .  A
C144        C232   1.498       .  S
C145        C146   1.381       .  A
C145        C185   1.508       .  S
C146       C1261   1.381       .  A
C146        H147   1.077       .  S
C149        C150   1.442       .  A
C149        C154   1.436       .  A
C150        C151   1.394       .  A
C151        C152   1.386       .  A
C151        H156   1.082       .  S
C152        C153   1.420       .  A
C152        C204   1.489       .  S
C153        C154   1.425       .  A
C153        C186   1.503       .  S
C154        H155   1.083       .  S
C157        C158   1.439       .  A
C157        C162   1.439       .  A
C158        C159   1.391       .  A
C158        C231   1.507       .  S
C159        C160   1.374       .  A
C159        H164   1.086       .  S
C160        C161   1.417       .  A
C160        C181   1.500       .  S
C161        C162   1.437       .  A
C162        H163   1.083       .  S
O165        C181   1.274       .  A
O165       Zn171   2.050       .  S
C166        O182   1.266       .  A
C166        O179   1.289       .  A
O167        C180   1.268       .  A
O167       Cd174   2.072       .  S
O168        C186   1.284       .  A
O168      Cd1297   2.177   1_455  S
O169       C1303   1.265       .  A
O169       Cd173   2.013       .  S
O170        C181   1.277       .  A
O170       Cd173   2.048       .  S
Zn171       O182   1.952       .  S
Zn171       O184   2.022       .  S
Zn171       O176   1.884       .  S
O172        C183   1.285   1_455  A
O172      Cd1297   2.150   1_455  S
Cd173       O175   2.112       .  S
Cd173       O176   1.947       .  S
Cd174       O178   2.072       .  S
Cd174      O1307   1.970       .  S
Cd174       O176   1.928       .  S
O175        C185   1.274       .  A
O176       Cd177   2.055       .  S
Cd177       O179   2.169       .  S
Cd177      O1288   2.177       .  S
Cd177      O1292   2.150       .  S
O178        C185   1.279       .  A
C180        O184   1.280       .  A
C183       C1385   1.487   1_655  S
C183       O1289   1.265       .  A
C186        O187   1.261       .  A
O187      Cd1294   1.970   1_455  S
O188        C204   1.274       .  A
O188       Zn194   2.083       .  S
C189        O205   1.273       .  A
C189        O202   1.291       .  A
O190       C1323   1.271       .  A
O190       Cd197   2.104       .  S
O191        C209   1.291       .  A
O191       Cd760   2.197       .  S
O192        C766   1.261       .  A
O192       Cd196   1.979       .  S
O193        C204   1.260       .  A
O193       Cd196   2.018       .  S
Zn194      O1325   1.979   1_455  S
Zn194      O1327   1.985   1_455  S
Zn194       O199   1.893       .  S
O195        C206   1.289   1_545  A
O195      Cd1880   2.181   1_455  S
Cd196       O198   2.096       .  S
Cd196       O199   1.955       .  S
Cd197       O201   2.020       .  S
Cd197       O770   1.979       .  S
Cd197       O199   1.944       .  S
O198        C208   1.268       .  A
O199      Cd1320   2.039   1_455  S
Cd200       O202   2.170       .  S
Cd200       O751   2.197       .  S
Cd200      O1875   2.181       .  S
Cd200      O1319   2.039       .  S
O201        C208   1.260       .  A
C203       C1261   1.482       .  S
C203        O207   1.266       .  A
C203       O1310   1.271       .  A
O205      Zn1314   1.979       .  S
C206        C693   1.497       .  S
C206        O752   1.261       .  A
O207      Zn1314   1.985       .  S
C208        C235   1.474       .  S
C209       C1389   1.506       .  S
C209       O1330   1.260       .  A
O210       C1329   1.260       .  A
O210       Cd757   1.979   1_545  S
O211        C227   1.270       .  A
O211       Zn217   2.042       .  S
C212        C557   1.488       .  S
C212        O225   1.289       .  A
C212        O508   1.269       .  A
O213        C226   1.272       .  A
O213       Cd220   2.104       .  S
O214       C1352   1.292       .  A
O214      Cd1623   2.185       .  S
O215        C229   1.258       .  A
O215       Cd499   1.990       .  S
O216        C227   1.271       .  A
O216       Cd219   2.041       .  S
Zn217       O230   1.945       .  S
Zn217      O1348   1.953       .  S
Zn217       O222   1.896       .  S
O218        C229   1.288       .  A
O218       Cd223   2.183       .  S
Cd219       O221   2.073       .  S
Cd219       O495   1.990   1_554  S
Cd219       O222   1.942       .  S
Cd220       O224   2.036       .  S
Cd220       O233   2.018       .  S
Cd220       O222   1.939       .  S
O221        C231   1.270       .  A
O222       Cd503   2.032       .  S
Cd223      O1614   2.185       .  S
Cd223      O1345   2.159       .  S
Cd223       O502   2.032       .  S
O224        C231   1.276       .  A
O225      Cd1343   2.159   1_455  S
C226        C266   1.500       .  S
C226        O230   1.267       .  A
O228        C492   1.269       .  A
O228      Zn1337   1.953   1_455  S
C232        O233   1.266       .  A
C232       O1334   1.292       .  A
C234        C235   1.418       .  A
C234        C239   1.427       .  A
C234        C649   1.504       .  S
C235        C236   1.390       .  A
C236        C797   1.393       .  A
C236        H241   1.084       .  S
C237        C238   1.438       .  A
C237        C796   1.393       .  A
C237        C262   1.527       .  S
C238        C799   1.434       .  A
C238        C680   1.490   1_565  S
C239        C798   1.434       .  A
C239        H240   1.083       .  S
O242        C258   1.272       .  A
O242       Zn248   2.041   1_556  S
C243        C408   1.503       .  S
C243        O256   1.288       .  A
C243        O539   1.262       .  A
O244        C257   1.270       .  A
O244       Cd251   2.078       .  S
O245        C263   1.281       .  A
O245      Cd1094   2.143   1_554  S
O246        C820   1.270       .  A
O246       Cd530   2.015       .  S
O247        C538   1.278       .  A
O247       Cd530   2.063       .  S
Zn248      O1379   1.946   1_455  S
Zn248      O1381   2.020       .  S
Zn248       O253   1.870       .  S
O249        C260   1.286       .  A
O249      Cd1934   2.149   1_455  S
Cd250       O252   2.113       .  S
Cd250       O526   2.014   1_554  S
Cd250       O527   2.063       .  S
Cd250       O253   1.936       .  S
Cd251       O815   2.086   1_545  S
Cd251       O824   2.047   1_445  S
Cd251       O253   1.950       .  S
O252        C262   1.274   1_545  A
O253      Cd1654   2.044   1_454  S
Cd254       O256   2.175       .  S
Cd254      O1085   2.143   1_545  S
Cd254      O1929   2.149       .  S
Cd254      O1653   2.044       .  S
O255        C822   1.279       .  A
O255       Cd811   2.086       .  S
C257        C268   1.515       .  S
C257       O1381   1.278       .  A
C258        C276   1.494       .  S
C258        O527   1.278   1_556  A
O259        C523   1.262       .  A
O259      Zn1368   1.946       .  S
C260        C697   1.491       .  S
C260        O806   1.270       .  A
O261       C1377   1.278       .  A
O261      Zn1368   2.020       .  S
C262        O815   1.279       .  A
C263       C1262   1.498       .  S
C263       O1384   1.271       .  A
O264       C1383   1.271       .  A
O264       Cd811   2.047   1_655  S
C265        C266   1.424       .  A
C265       C1390   1.431       .  A
C265       C1303   1.487       .  S
C266       C1387   1.386       .  A
C267        C268   1.391       .  A
C267       C1386   1.386       .  A
C267        H272   1.087       .  S
C268        C269   1.441       .  A
C269        C270   1.433       .  A
C269       C1329   1.506       .  S
C270       C1385   1.431       .  A
C270        H271   1.083   1_455  S
C273        C274   1.438       .  A
C273        C278   1.432       .  A
C273        C326   1.502       .  S
C274        C275   1.393       .  A
C275        C556   1.378       .  A
C275        H280   1.087       .  S
C276        C277   1.419       .  A
C276        C555   1.378       .  A
C277        C558   1.431       .  A
C277        C492   1.488   1_556  S
C278        C557   1.431       .  A
C278        H279   1.083       .  S
C281        C282   1.421       .  A
C281        C286   1.431       .  A
C281        C446   1.493       .  S
C282        C283   1.379       .  A
C282        C344   1.499       .  S
C283        C284   1.393       .  A
C283        H288   1.087       .  S
C284        C285   1.443       .  A
C284        C321   1.515       .  S
C285        C286   1.435       .  A
C285        C509   1.503       .  S
C286        H287   1.083       .  S
C289        C290   1.426       .  A
C289        C294   1.433       .  A
C289        C323   1.488       .  S
C290        C291   1.389       .  A
C290        C348   1.506       .  S
C291        C292   1.387       .  A
C291        H296   1.086       .  S
C292        C293   1.427       .  A
C292        C366   1.510       .  S
C293        C294   1.436       .  A
C293        C403   1.498       .  S
C294        H295   1.083       .  S
C297        C298   1.422       .  A
C297        C302   1.434       .  A
C297        C469   1.497       .  S
C298        C299   1.381       .  A
C298        C460   1.496       .  S
C299        C300   1.390       .  A
C299        H304   1.088       .  S
C300        C301   1.442       .  A
C300        C343   1.507       .  S
C301        C302   1.436       .  A
C301        C352   1.512       .  S
C302        H303   1.083       .  S
O305        C321   1.272       .  A
O305       Zn311   2.039       .  S
C306        C437   1.509       .  S
C306        O322   1.266       .  A
C306        O319   1.290       .  A
O307        C320   1.270   1_556  A
O307       Cd314   2.090       .  S
O308        C326   1.290       .  A
O308       Cd317   2.184       .  S
O309        C323   1.265       .  A
O309       Cd313   2.024       .  S
O310        C321   1.274       .  A
O310       Cd313   2.038       .  S
Zn311       O324   1.983       .  S
Zn311       O316   1.885       .  S
O312        C323   1.288       .  A
Cd313       O315   2.118       .  S
Cd313       O316   1.944       .  S
Cd314       O318   2.068       .  S
Cd314       O327   1.997       .  S
Cd314       O316   1.941       .  S
O315        C325   1.277       .  A
Cd317       O319   2.181       .  S
O318        C325   1.278       .  A
C320        C405   1.511       .  S
C320        O324   1.271   1_554  A
C325        C375   1.503       .  S
O328        C344   1.275       .  A
O328       Zn334   2.063       .  S
C329        C441   1.488       .  S
C329        O345   1.267       .  A
C329        O342   1.284       .  A
O330        C343   1.265       .  A
O330       Cd337   2.051       .  S
O331        C349   1.287       .  A
O331       Cd340   2.157       .  S
O332        C346   1.268       .  A
O332       Cd336   2.015       .  S
O333        C344   1.278       .  A
O333       Cd336   2.061       .  S
Zn334       O345   1.968       .  S
Zn334       O347   2.001       .  S
Zn334       O339   1.892       .  S
O335        C346   1.289       .  A
O335       Cd340   2.158       .  S
Cd336       O338   2.112       .  S
Cd336       O339   1.958       .  S
Cd337       O341   1.990       .  S
Cd337       O350   2.007       .  S
Cd337       O339   1.938       .  S
O338        C348   1.272       .  A
O339       Cd340   2.025       .  S
Cd340       O342   2.148       .  S
O341        C348   1.265       .  A
C343        O347   1.276       .  A
C346        C374   1.486       .  S
C349        C429   1.495       .  S
C349        O350   1.262       .  A
O351        C367   1.272       .  A
O351       Zn357   2.064       .  S
C352        O368   1.265       .  A
C352        O365   1.289       .  A
O353        C366   1.271       .  A
O353       Cd360   2.082       .  S
O354        C372   1.289       .  A
O354       Cd923   2.177       .  S
O355        C929   1.273       .  A
O355       Cd359   2.049       .  S
O356        C367   1.274       .  A
O356       Cd359   2.062       .  S
Zn357       O368   1.971       .  S
Zn357       O370   2.023       .  S
Zn357       O362   1.871       .  S
O358        C369   1.285       .  A
O358       Cd923   2.159   1_565  S
Cd359       O361   2.056       .  S
Cd359       O362   1.940       .  S
Cd360       O364   2.087       .  S
Cd360       O933   2.061       .  S
Cd360       O362   1.970       .  S
O361        C371   1.267       .  A
O362       Cd363   2.029       .  S
Cd363       O914   2.177       .  S
Cd363       O918   2.159       .  S
Cd363       O365   2.179       .  S
O364        C371   1.279       .  A
C366        O370   1.277       .  A
C367        C430   1.522       .  S
C369       C1074   1.504       .  S
C369        O915   1.273   1_565  A
C371        C414   1.507       .  S
C372        C378   1.509       .  S
C372        O373   1.269       .  A
O373       Cd920   2.061   1_545  S
C374        C375   1.421       .  A
C374        C379   1.436       .  A
C375        C376   1.376       .  A
C376        C377   1.394       .  A
C376        H381   1.088       .  S
C377        C378   1.433       .  A
C377        C397   1.493       .  S
C378        C379   1.436       .  A
C379        H380   1.083       .  S
O382        C398   1.274       .  A
O382       Zn388   2.049       .  S
C383        O396   1.288       .  A
O384        C397   1.266       .  A
O384       Cd391   2.062       .  S
O385        C403   1.289       .  A
O385       Cd954   2.159       .  S
O386        C960   1.264       .  A
O387        C398   1.276       .  A
O387       Cd390   2.036       .  S
Zn388       O399   1.944       .  S
Zn388       O401   1.973       .  S
Zn388       O393   1.862       .  S
O389        C400   1.291       .  A
O389       Cd674   2.175       .  S
Cd390       O392   2.109   1_545  S
Cd390       O393   1.941       .  S
Cd391       O955   2.016       .  S
Cd391       O964   2.033   1_545  S
Cd391       O393   1.936       .  S
O392        C402   1.272   1_565  A
O393       Cd394   2.010   1_545  S
Cd394       O945   2.159       .  S
Cd394       O669   2.175   1_556  S
O395        C962   1.261       .  A
O395       Cd951   2.016       .  S
C397        O401   1.271       .  A
C398        C554   1.510       .  S
C400       C1078   1.490       .  S
C400        O946   1.264       .  A
C402        C416   1.478   1_545  S
C402        O955   1.261       .  A
C403        O404   1.275       .  A
O404       Cd951   2.033       .  S
C405        C406   1.427       .  A
C407        C408   1.436       .  A
C407        H412   1.083       .  S
C408        C409   1.439       .  A
C409        C410   1.391       .  A
C409        C507   1.512       .  S
C410        H411   1.087       .  S
C413        C414   1.437       .  A
C413        C418   1.433       .  A
C413       C1046   1.497       .  S
C414        C415   1.388       .  A
C415        C976   1.382       .  A
C415        H420   1.088       .  S
C416        C975   1.382       .  A
C416        C417   1.419       .  A
C417        C978   1.428   1_565  A
C417       C1100   1.491   1_565  S
C418        C977   1.428       .  A
C418        H419   1.083       .  S
C421        C422   1.421   1_455  A
C421       C1546   1.381       .  A
C421       C1603   1.482       .  S
C422       C1543   1.435       .  A
C422       C1663   1.498       .  S
C423       C1542   1.435       .  A
C423        C424   1.435       .  A
C423        H428   1.083       .  S
C424        C425   1.430       .  A
C424        C512   1.498       .  S
C425        C426   1.381       .  A
C425        C465   1.508       .  S
C426       C1541   1.381       .  A
C426        H427   1.077       .  S
C429        C430   1.442       .  A
C429        C434   1.436       .  A
C430        C431   1.394       .  A
C431        C432   1.386       .  A
C431        H436   1.082       .  S
C432        C433   1.420       .  A
C432        C484   1.489       .  S
C433        C434   1.425       .  A
C433        C466   1.503       .  S
C434        H435   1.083       .  S
C437        C438   1.439       .  A
C437        C442   1.439       .  A
C438        C439   1.391       .  A
C438        C511   1.507       .  S
C439        C440   1.374       .  A
C439        H444   1.086       .  S
C440        C441   1.417       .  A
C440        C461   1.500       .  S
C441        C442   1.437       .  A
C442        H443   1.083       .  S
O445        C461   1.274       .  A
O445       Zn451   2.050       .  S
C446        O462   1.266       .  A
C446        O459   1.289       .  A
O447        C460   1.268       .  A
O447       Cd454   2.072       .  S
O448        C466   1.284       .  A
O448      Cd1577   2.178   1_455  S
O449       C1583   1.265       .  A
O449       Cd453   2.013       .  S
O450        C461   1.277       .  A
O450       Cd453   2.048       .  S
Zn451       O462   1.952       .  S
Zn451       O464   2.022       .  S
Zn451       O456   1.884       .  S
O452        C463   1.285   1_455  A
O452      Cd1577   2.150   1_455  S
Cd453       O455   2.112       .  S
Cd453       O456   1.947       .  S
Cd454       O458   2.072       .  S
Cd454      O1587   1.970       .  S
Cd454       O456   1.928       .  S
O455        C465   1.274       .  A
O456       Cd457   2.055       .  S
Cd457      O1568   2.178       .  S
Cd457      O1572   2.150       .  S
Cd457       O459   2.169       .  S
O458        C465   1.279       .  A
C460        O464   1.280       .  A
C463       C1665   1.487   1_655  S
C463       O1569   1.265       .  A
C466        O467   1.261       .  A
O467      Cd1574   1.970   1_455  S
O468        C484   1.274       .  A
O468       Zn474   2.083       .  S
C469        O485   1.273       .  A
C469        O482   1.291       .  A
O470       C1603   1.271       .  A
O470       Cd477   2.104       .  S
O471        C489   1.291       .  A
O471      Cd1040   2.197       .  S
O472       C1046   1.261       .  A
O472       Cd476   1.979       .  S
O473        C484   1.260       .  A
O473       Cd476   2.018       .  S
Zn474      O1605   1.979   1_455  S
Zn474      O1607   1.985   1_455  S
Zn474       O479   1.892       .  S
O475        C486   1.289   1_545  A
O475      Cd2160   2.181   1_455  S
Cd476       O478   2.096       .  S
Cd476       O479   1.956       .  S
Cd477       O481   2.020       .  S
Cd477      O1050   1.979       .  S
Cd477       O479   1.944       .  S
O478        C488   1.268       .  A
O479      Cd1600   2.039   1_455  S
Cd480      O1031   2.197       .  S
Cd480      O2155   2.181       .  S
Cd480       O482   2.170       .  S
Cd480      O1599   2.039       .  S
O481        C488   1.260       .  A
C483       C1541   1.482       .  S
C483       O1590   1.271       .  A
C483        O487   1.266       .  A
O485      Zn1594   1.979       .  S
C486        C973   1.497       .  S
C486       O1032   1.261       .  A
O487      Zn1594   1.985       .  S
C488        C515   1.474       .  S
C489       C1669   1.506       .  S
C489       O1610   1.260       .  A
O490       C1609   1.260       .  A
O490      Cd1037   1.979   1_545  S
O491        C507   1.270       .  A
O491       Zn497   2.042       .  S
C492        O505   1.289   1_554  A
O493        C506   1.272       .  A
O493       Cd500   2.104       .  S
O494       C1632   1.292       .  A
O494      Cd1343   2.185       .  S
O495        C509   1.258       .  A
O496        C507   1.271       .  A
O496       Cd499   2.041       .  S
Zn497      O1628   1.953       .  S
Zn497       O510   1.945       .  S
Zn497       O502   1.895       .  S
O498        C509   1.288       .  A
O498       Cd503   2.182   1_556  S
Cd499       O501   2.073       .  S
Cd499       O502   1.942       .  S
Cd500       O504   2.036       .  S
Cd500       O513   2.018       .  S
Cd500       O502   1.939       .  S
O501        C511   1.270       .  A
Cd503      O1334   2.185       .  S
Cd503      O1625   2.159   1_554  S
O504        C511   1.276       .  A
O505      Cd1623   2.159   1_456  S
C506        C546   1.500       .  S
C506        O510   1.267       .  A
O508      Zn1617   1.953   1_455  S
C512       O1614   1.292       .  A
C512        O513   1.266       .  A
C514        C515   1.418       .  A
C514        C519   1.427       .  A
C514        C929   1.504       .  S
C515        C516   1.390       .  A
C516       C1077   1.393       .  A
C516        H521   1.084       .  S
C517       C1076   1.393       .  A
C517        C518   1.438       .  A
C517        C542   1.527       .  S
C518       C1079   1.434       .  A
C518        C960   1.490   1_565  S
C519       C1078   1.434       .  A
C519        H520   1.083       .  S
O522        C538   1.272       .  A
O522       Zn528   2.041       .  S
C523        O536   1.288   1_554  A
O524        C537   1.270       .  A
O524       Cd531   2.078       .  S
O525        C543   1.281       .  A
O525       Cd814   2.143       .  S
O526       C1100   1.270       .  A
Zn528      O1659   1.946   1_455  S
Zn528      O1661   2.020       .  S
Zn528       O533   1.870       .  S
O529        C540   1.286       .  A
O529      Cd2214   2.149   1_455  S
Cd530       O532   2.113       .  S
Cd530       O533   1.936       .  S
Cd531      O1095   2.086   1_545  S
Cd531      O1104   2.047   1_445  S
Cd531       O533   1.950       .  S
O532        C542   1.274   1_545  A
O533      Cd1374   2.044   1_455  S
Cd534       O805   2.143   1_546  S
Cd534      O2209   2.149       .  S
Cd534       O536   2.175       .  S
Cd534      O1373   2.044   1_556  S
O535       C1102   1.279       .  A
O535      Cd1091   2.086       .  S
C537        C548   1.515       .  S
C537       O1661   1.278       .  A
C538        C556   1.494       .  S
O539      Zn1648   1.946       .  S
C540        C977   1.491       .  S
C540       O1086   1.270       .  A
O541       C1657   1.278       .  A
O541      Zn1648   2.020       .  S
C542       O1095   1.279       .  A
C543       C1542   1.498       .  S
C543       O1664   1.271       .  A
O544       C1663   1.271       .  A
O544      Cd1091   2.047   1_655  S
C545        C546   1.424       .  A
C545       C1670   1.431       .  A
C545       C1583   1.487       .  S
C546       C1667   1.386       .  A
C547       C1666   1.386       .  A
C547        C548   1.391       .  A
C547        H552   1.087       .  S
C548        C549   1.441       .  A
C549        C550   1.433       .  A
C549       C1609   1.506       .  S
C550       C1665   1.431       .  A
C550        H551   1.083   1_455  S
C553        C554   1.438       .  A
C553        C558   1.432       .  A
C554        C555   1.393       .  A
C555        H560   1.087       .  S
C556        C557   1.419       .  A
C558        H559   1.083   1_556  S
C561        C562   1.421       .  A
C561        C566   1.431       .  A
C561        C726   1.493       .  S
C562        C563   1.379       .  A
C562        C624   1.499       .  S
C563        C564   1.393       .  A
C563        H568   1.087       .  S
C564        C565   1.443       .  A
C564        C601   1.515       .  S
C565        C566   1.435       .  A
C565        C789   1.503       .  S
C566        H567   1.083       .  S
C569        C570   1.426       .  A
C569        C574   1.433       .  A
C569        C603   1.488       .  S
C570        C571   1.389       .  A
C570        C628   1.506       .  S
C571        C572   1.387       .  A
C571        H576   1.086       .  S
C572        C573   1.427       .  A
C572        C646   1.510       .  S
C573        C574   1.436       .  A
C573        C683   1.498       .  S
C574        H575   1.083       .  S
C577        C578   1.422       .  A
C577        C582   1.434       .  A
C577        C749   1.497       .  S
C578        C579   1.380       .  A
C578        C740   1.496       .  S
C579        C580   1.390       .  A
C579        H584   1.088       .  S
C580        C581   1.442       .  A
C580        C623   1.507       .  S
C581        C582   1.436       .  A
C581        C632   1.512       .  S
C582        H583   1.083       .  S
O585        C601   1.272       .  A
O585       Zn591   2.039       .  S
C586        C717   1.509       .  S
C586        O602   1.266       .  A
C586        O599   1.290       .  A
O587        C600   1.270       .  A
O587       Cd594   2.090       .  S
O588        C606   1.290   1_554  A
O588       Cd597   2.183       .  S
O589        C603   1.265       .  A
O589       Cd593   2.024       .  S
O590        C601   1.274       .  A
O590       Cd593   2.038       .  S
Zn591       O882   1.956       .  S
Zn591       O604   1.983       .  S
Zn591       O596   1.885       .  S
O592        C603   1.289       .  A
O592       Cd877   2.163       .  S
Cd593       O595   2.118       .  S
Cd593       O596   1.944       .  S
Cd594       O598   2.068       .  S
Cd594       O607   1.997       .  S
Cd594       O596   1.941       .  S
O595        C605   1.277       .  A
O596       Cd877   2.046       .  S
Cd597       O872   2.163   1_554  S
Cd597       O599   2.182       .  S
Cd597       O876   2.046   1_554  S
O598        C605   1.278       .  A
C600        C685   1.511       .  S
C600        O604   1.271       .  A
O602       Zn871   1.956   1_554  S
C605        C655   1.503       .  S
C606       C1113   1.502       .  S
C606        O887   1.262       .  A
O607        C886   1.263       .  A
O608        C624   1.275       .  A
O608       Zn614   2.063       .  S
C609        C721   1.488       .  S
C609        O625   1.267       .  A
C609        O622   1.284       .  A
O610        C623   1.265       .  A
O610       Cd617   2.050       .  S
O611        C629   1.287       .  A
O611       Cd620   2.157       .  S
O612        C626   1.268       .  A
O612       Cd616   2.015       .  S
O613        C624   1.278       .  A
O613       Cd616   2.061       .  S
Zn614       O625   1.968       .  S
Zn614       O627   2.001       .  S
Zn614       O619   1.892       .  S
O615        C626   1.289       .  A
O615       Cd620   2.158       .  S
Cd616       O618   2.112       .  S
Cd616       O619   1.959       .  S
Cd617       O621   1.990       .  S
Cd617       O630   2.007       .  S
Cd617       O619   1.938       .  S
O618        C628   1.272       .  A
O619       Cd620   2.026       .  S
Cd620       O622   2.148       .  S
O621        C628   1.265       .  A
C623        O627   1.276       .  A
C626        C654   1.486       .  S
C629        C709   1.495       .  S
C629        O630   1.262       .  A
O631        C647   1.272       .  A
O631       Zn637   2.064       .  S
C632        O648   1.265       .  A
C632        O645   1.289       .  A
O633        C646   1.271       .  A
O633       Cd640   2.082       .  S
O634        C652   1.289       .  A
O635       Cd639   2.049   1_545  S
O636        C647   1.274       .  A
O636       Cd639   2.062       .  S
Zn637       O648   1.971       .  S
Zn637       O650   2.023       .  S
Zn637       O642   1.871       .  S
O638        C649   1.285       .  A
Cd639       O641   2.055       .  S
Cd639       O642   1.940       .  S
Cd640       O644   2.087       .  S
Cd640       O642   1.970       .  S
O641        C651   1.267       .  A
O642       Cd643   2.029   1_565  S
Cd643       O645   2.179   1_545  S
O644        C651   1.280       .  A
C646        O650   1.277       .  A
C647        C710   1.522       .  S
C651        C694   1.507       .  S
C652        C658   1.509       .  S
C652        O653   1.269       .  A
C654        C655   1.421       .  A
C654        C659   1.436       .  A
C655        C656   1.376       .  A
C656        C657   1.394       .  A
C656        H661   1.088       .  S
C657        C658   1.433       .  A
C657        C677   1.493       .  S
C658        C659   1.436       .  A
C659        H660   1.083       .  S
O662        C678   1.274       .  A
O662       Zn668   2.050       .  S
C663        C966   1.494   1_556  S
C663        O959   1.263       .  A
C663        O676   1.288   1_556  A
O664        C677   1.266       .  A
O664       Cd671   2.062       .  S
O665        C683   1.289       .  A
O666       Cd950   2.018   1_554  S
O667        C678   1.276       .  A
O667       Cd670   2.036       .  S
Zn668       O679   1.944       .  S
Zn668       O681   1.973       .  S
Zn668       O673   1.862       .  S
O669        C680   1.291   1_565  A
Cd670       O946   2.018       .  S
Cd670       O672   2.109       .  S
Cd670       O673   1.941       .  S
Cd671       O673   1.936       .  S
O672        C682   1.272       .  A
O673       Cd674   2.010       .  S
Cd674       O956   2.169       .  S
O676       Cd954   2.169   1_554  S
C677        O681   1.271       .  A
C678        C834   1.510       .  S
O679        C943   1.263       .  A
C682        C696   1.478       .  S
C683        O684   1.275       .  A
C685        C686   1.427       .  A
C685        C970   1.384       .  A
C686        C967   1.434       .  A
C686        C943   1.494       .  S
C687        C966   1.434       .  A
C687        C688   1.436       .  A
C687        H692   1.083   1_554  S
C688        C689   1.439       .  A
C688       C1083   1.503       .  S
C689        C690   1.391       .  A
C689        C787   1.512       .  S
C690        C965   1.384       .  A
C690        H691   1.087       .  S
C693        C694   1.437       .  A
C693        C698   1.433   1_565  A
C694        C695   1.388       .  A
C695        H700   1.088       .  S
C696        C697   1.419       .  A
C698        H699   1.083       .  S
C701        C702   1.421   1_455  A
C701       C1826   1.381       .  A
C701       C1883   1.482       .  S
C702       C1823   1.435       .  A
C702       C1943   1.498       .  S
C703       C1822   1.435       .  A
C703        C704   1.435       .  A
C703        H708   1.083       .  S
C704        C705   1.430       .  A
C704        C792   1.498       .  S
C705        C706   1.381       .  A
C705        C745   1.508       .  S
C706       C1821   1.381       .  A
C706        H707   1.077       .  S
C709        C710   1.442       .  A
C709        C714   1.436       .  A
C710        C711   1.394       .  A
C711        C712   1.386       .  A
C711        H716   1.082       .  S
C712        C713   1.420       .  A
C712        C764   1.489       .  S
C713        C714   1.425       .  A
C713        C746   1.503       .  S
C714        H715   1.083       .  S
C717        C718   1.439       .  A
C717        C722   1.439       .  A
C718        C719   1.391       .  A
C718        C791   1.507       .  S
C719        C720   1.374       .  A
C719        H724   1.086       .  S
C720        C721   1.417       .  A
C720        C741   1.500       .  S
C721        C722   1.437       .  A
C722        H723   1.083       .  S
O725        C741   1.274       .  A
O725       Zn731   2.050       .  S
C726        O742   1.266       .  A
C726        O739   1.289       .  A
O727        C740   1.268       .  A
O727       Cd734   2.072       .  S
O728        C746   1.284       .  A
O728      Cd1857   2.177   1_455  S
O729       C1863   1.265       .  A
O729       Cd733   2.013       .  S
O730        C741   1.277       .  A
O730       Cd733   2.048       .  S
Zn731       O742   1.952       .  S
Zn731       O744   2.022       .  S
Zn731       O736   1.884       .  S
O732        C743   1.285   1_455  A
O732      Cd1857   2.150   1_455  S
Cd733       O735   2.112       .  S
Cd733       O736   1.947       .  S
Cd734       O738   2.072       .  S
Cd734      O1867   1.970       .  S
Cd734       O736   1.928       .  S
O735        C745   1.274       .  A
O736       Cd737   2.055       .  S
Cd737      O1848   2.177       .  S
Cd737      O1852   2.150       .  S
Cd737       O739   2.169       .  S
O738        C745   1.279       .  A
C740        O744   1.280       .  A
C743       C1945   1.487   1_655  S
C743       O1849   1.265       .  A
C746        O747   1.261       .  A
O747      Cd1854   1.970   1_455  S
O748        C764   1.274       .  A
O748       Zn754   2.083       .  S
C749        O765   1.273       .  A
C749        O762   1.291       .  A
O750       C1883   1.271       .  A
O750       Cd757   2.104       .  S
O751        C769   1.291       .  A
O752       Cd756   1.979       .  S
O753        C764   1.260       .  A
O753       Cd756   2.018       .  S
Zn754      O1885   1.979   1_455  S
Zn754      O1887   1.985   1_455  S
Zn754       O759   1.893       .  S
O755        C766   1.289       .  A
O755      Cd1320   2.181   1_455  S
Cd756       O758   2.096       .  S
Cd756       O759   1.956       .  S
Cd757       O761   2.020   1_565  S
Cd757       O759   1.944       .  S
O758        C768   1.268       .  A
O759      Cd1880   2.039   1_465  S
Cd760      O1315   2.181       .  S
Cd760       O762   2.170   1_545  S
Cd760      O1879   2.039   1_545  S
O761        C768   1.260   1_545  A
C763       C1821   1.482       .  S
C763       O1870   1.271       .  A
C763        O767   1.266       .  A
O765      Zn1874   1.979       .  S
O767      Zn1874   1.985       .  S
C768        C795   1.474       .  S
C769       C1949   1.506       .  S
C769       O1890   1.260       .  A
O770       C1889   1.260       .  A
O771        C787   1.270       .  A
O771       Zn777   2.042       .  S
C772       C1117   1.488       .  S
C772       O1068   1.269       .  A
C772        O785   1.289       .  A
O773        C786   1.272       .  A
O773       Cd780   2.104       .  S
O774       C1912   1.292       .  A
O774      Cd2183   2.185       .  S
O775        C789   1.258       .  A
O775      Cd1059   1.990       .  S
O776        C787   1.271       .  A
O776       Cd779   2.041       .  S
Zn777      O1908   1.953       .  S
Zn777       O790   1.945       .  S
Zn777       O782   1.896       .  S
O778        C789   1.288       .  A
O778       Cd783   2.183       .  S
Cd779      O1055   1.990   1_554  S
Cd779       O781   2.073       .  S
Cd779       O782   1.942       .  S
Cd780       O784   2.036       .  S
Cd780       O793   2.018       .  S
Cd780       O782   1.939       .  S
O781        C791   1.270       .  A
O782      Cd1063   2.032       .  S
Cd783      O2174   2.185       .  S
Cd783      O1905   2.159       .  S
Cd783      O1062   2.032       .  S
O784        C791   1.276       .  A
O785      Cd1903   2.159   1_455  S
C786        C826   1.500       .  S
C786        O790   1.267       .  A
O788       C1052   1.269       .  A
O788      Zn1897   1.953   1_455  S
C792       O1894   1.292       .  A
C792        O793   1.266       .  A
C794        C795   1.418       .  A
C794        C799   1.427       .  A
C795        C796   1.390       .  A
C796        H801   1.084       .  S
C797        C798   1.438       .  A
C797        C822   1.527       .  S
C799        H800   1.083   1_565  S
O802        C818   1.272       .  A
O802       Zn808   2.041   1_556  S
C803        C968   1.503       .  S
C803       O1099   1.262       .  A
C803        O816   1.288       .  A
O804        C817   1.270       .  A
O804       Cd811   2.078       .  S
O805        C823   1.281       .  A
O806      Cd1090   2.015       .  S
O807       C1098   1.278       .  A
O807      Cd1090   2.063       .  S
Zn808      O1939   1.946   1_455  S
Zn808      O1941   2.020       .  S
Zn808       O813   1.870       .  S
O809        C820   1.286       .  A
O809      Cd1374   2.149   1_455  S
Cd810      O1086   2.014   1_554  S
Cd810      O1087   2.063       .  S
Cd810       O812   2.113       .  S
Cd810       O813   1.936       .  S
Cd811       O813   1.950       .  S
O812        C822   1.274       .  A
O813      Cd2214   2.044   1_454  S
Cd814      O1369   2.149       .  S
Cd814       O816   2.175       .  S
Cd814      O2213   2.044       .  S
C817        C828   1.515       .  S
C817       O1941   1.278       .  A
C818        C836   1.494       .  S
C818       O1087   1.278   1_556  A
O819       C1083   1.262       .  A
O819      Zn1928   1.946       .  S
O821       C1937   1.278       .  A
O821      Zn1928   2.020       .  S
C823       C1822   1.498       .  S
C823       O1944   1.271       .  A
O824       C1943   1.271       .  A
C825        C826   1.424       .  A
C825       C1950   1.431       .  A
C825       C1863   1.487       .  S
C826       C1947   1.386       .  A
C827       C1946   1.386       .  A
C827        C828   1.391       .  A
C827        H832   1.087       .  S
C828        C829   1.441       .  A
C829        C830   1.433       .  A
C829       C1889   1.506       .  S
C830       C1945   1.431       .  A
C830        H831   1.083   1_455  S
C833        C834   1.438       .  A
C833        C838   1.432       .  A
C833        C886   1.502       .  S
C834        C835   1.393       .  A
C835       C1116   1.378       .  A
C835        H840   1.087       .  S
C836       C1115   1.378       .  A
C836        C837   1.419       .  A
C837       C1118   1.431       .  A
C837       C1052   1.488   1_556  S
C838       C1117   1.431       .  A
C838        H839   1.083       .  S
C841        C842   1.421       .  A
C841        C846   1.431       .  A
C841       C1006   1.493       .  S
C842        C843   1.379       .  A
C842        C904   1.499       .  S
C843        C844   1.393       .  A
C843        H848   1.087       .  S
C844        C845   1.443       .  A
C844        C881   1.515       .  S
C845        C846   1.435       .  A
C845       C1069   1.503       .  S
C846        H847   1.083       .  S
C849        C850   1.426       .  A
C849        C854   1.433       .  A
C849        C883   1.488       .  S
C850        C851   1.389       .  A
C850        C908   1.506       .  S
C851        C852   1.387       .  A
C851        H856   1.086       .  S
C852        C853   1.427       .  A
C852        C926   1.510       .  S
C853        C854   1.436       .  A
C853        C963   1.498       .  S
C854        H855   1.083       .  S
C857        C858   1.422       .  A
C857        C862   1.434       .  A
C857       C1029   1.497       .  S
C858        C859   1.381       .  A
C858       C1020   1.496       .  S
C859        C860   1.390       .  A
C859        H864   1.088       .  S
C860        C861   1.442       .  A
C860        C903   1.507       .  S
C861        C862   1.436       .  A
C861        C912   1.512       .  S
C862        H863   1.083       .  S
O865        C881   1.272       .  A
O865       Zn871   2.039       .  S
C866        C997   1.509       .  S
C866        O882   1.266       .  A
C866        O879   1.290       .  A
O867        C880   1.270   1_556  A
O867       Cd874   2.090       .  S
O868        C886   1.290       .  A
O868       Cd877   2.184       .  S
O869        C883   1.265       .  A
O869       Cd873   2.024       .  S
O870        C881   1.274       .  A
O870       Cd873   2.038       .  S
Zn871       O884   1.983       .  S
Zn871       O876   1.885       .  S
O872        C883   1.288       .  A
Cd873       O875   2.118       .  S
Cd873       O876   1.944       .  S
Cd874       O878   2.068       .  S
Cd874       O887   1.997       .  S
Cd874       O876   1.941       .  S
O875        C885   1.277       .  A
Cd877       O879   2.181       .  S
O878        C885   1.278       .  A
C880        C965   1.511       .  S
C880        O884   1.271   1_554  A
C885        C935   1.503       .  S
O888        C904   1.275       .  A
O888       Zn894   2.063       .  S
C889       C1001   1.488       .  S
C889        O905   1.267       .  A
C889        O902   1.284       .  A
O890        C903   1.265       .  A
O890       Cd897   2.051       .  S
O891        C909   1.287       .  A
O891       Cd900   2.157       .  S
O892        C906   1.268       .  A
O892       Cd896   2.015       .  S
O893        C904   1.278       .  A
O893       Cd896   2.061       .  S
Zn894       O905   1.968       .  S
Zn894       O907   2.001       .  S
Zn894       O899   1.892       .  S
O895        C906   1.289       .  A
O895       Cd900   2.158       .  S
Cd896       O898   2.112       .  S
Cd896       O899   1.958       .  S
Cd897       O901   1.990       .  S
Cd897       O910   2.007       .  S
Cd897       O899   1.938       .  S
O898        C908   1.272       .  A
O899       Cd900   2.025       .  S
Cd900       O902   2.148       .  S
O901        C908   1.265       .  A
C903        O907   1.276       .  A
C906        C934   1.486       .  S
C909        C989   1.495       .  S
C909        O910   1.262       .  A
O911        C927   1.272       .  A
O911       Zn917   2.064       .  S
C912        O928   1.265       .  A
C912        O925   1.289       .  A
O913        C926   1.271       .  A
O913       Cd920   2.082       .  S
O914        C932   1.289       .  A
O915       Cd919   2.049   1_545  S
O916        C927   1.274       .  A
O916       Cd919   2.062       .  S
Zn917       O928   1.971       .  S
Zn917       O930   2.023       .  S
Zn917       O922   1.871       .  S
O918        C929   1.285       .  A
Cd919       O921   2.056       .  S
Cd919       O922   1.940       .  S
Cd920       O924   2.087       .  S
Cd920       O922   1.970       .  S
O921        C931   1.267       .  A
O922       Cd923   2.029   1_565  S
Cd923       O925   2.179   1_545  S
O924        C931   1.279       .  A
C926        O930   1.277       .  A
C927        C990   1.522       .  S
C931        C974   1.507       .  S
C932        C938   1.509       .  S
C932        O933   1.269       .  A
C934        C935   1.421       .  A
C934        C939   1.436       .  A
C935        C936   1.376       .  A
C936        C937   1.394       .  A
C936        H941   1.088       .  S
C937        C938   1.433       .  A
C937        C957   1.493       .  S
C938        C939   1.436       .  A
C939        H940   1.083       .  S
O942        C958   1.274       .  A
O942       Zn948   2.049       .  S
C943        O956   1.288       .  A
O944        C957   1.266       .  A
O944       Cd951   2.062       .  S
O945        C963   1.289       .  A
O947        C958   1.276       .  A
O947       Cd950   2.036       .  S
Zn948       O959   1.944       .  S
Zn948       O961   1.973       .  S
Zn948       O953   1.862       .  S
O949        C960   1.291   1_565  A
Cd950       O952   2.109       .  S
Cd950       O953   1.941       .  S
Cd951       O953   1.936       .  S
O952        C962   1.272       .  A
O953       Cd954   2.010       .  S
C957        O961   1.271       .  A
C958       C1114   1.510       .  S
C962        C976   1.478       .  S
C963        O964   1.275       .  A
C965        C966   1.427       .  A
C967        C968   1.436       .  A
C967        H972   1.083       .  S
C968        C969   1.439       .  A
C969        C970   1.391       .  A
C969       C1067   1.512       .  S
C970        H971   1.087       .  S
C973        C974   1.437       .  A
C973        C978   1.433   1_565  A
C974        C975   1.388       .  A
C975        H980   1.088       .  S
C976        C977   1.419       .  A
C978        H979   1.083       .  S
C981        C982   1.421   1_455  A
C981       C2106   1.381       .  A
C981       C2163   1.482       .  S
C982       C2103   1.435       .  A
C982       C2223   1.498       .  S
C983       C2102   1.435       .  A
C983        C984   1.435       .  A
C983        H988   1.083       .  S
C984        C985   1.430       .  A
C984       C1072   1.498       .  S
C985        C986   1.381       .  A
C985       C1025   1.508       .  S
C986       C2101   1.381       .  A
C986        H987   1.077       .  S
C989        C990   1.442       .  A
C989        C994   1.436       .  A
C990        C991   1.394       .  A
C991        C992   1.386       .  A
C991        H996   1.082       .  S
C992        C993   1.420       .  A
C992       C1044   1.489       .  S
C993        C994   1.425       .  A
C993       C1026   1.503       .  S
C994        H995   1.083       .  S
C997        C998   1.439       .  A
C997       C1002   1.439       .  A
C998        C999   1.391       .  A
C998       C1071   1.507       .  S
C999       C1000   1.374       .  A
C999       H1004   1.086       .  S
C1000      C1001   1.417       .  A
C1000      C1021   1.500       .  S
C1001      C1002   1.437       .  A
C1002      H1003   1.083       .  S
O1005      C1021   1.274       .  A
O1005     Zn1011   2.050       .  S
C1006      O1022   1.266       .  A
C1006      O1019   1.289       .  A
O1007      C1020   1.268       .  A
O1007     Cd1014   2.072       .  S
O1008      C1026   1.284       .  A
O1008     Cd2137   2.178   1_455  S
O1009      C2143   1.265       .  A
O1009     Cd1013   2.013       .  S
O1010      C1021   1.277       .  A
O1010     Cd1013   2.048       .  S
Zn1011     O1022   1.952       .  S
Zn1011     O1024   2.022       .  S
Zn1011     O1016   1.884       .  S
O1012      C1023   1.285   1_455  A
O1012     Cd2137   2.150   1_455  S
Cd1013     O1015   2.112       .  S
Cd1013     O1016   1.947       .  S
Cd1014     O1018   2.072       .  S
Cd1014     O2147   1.970       .  S
Cd1014     O1016   1.928       .  S
O1015      C1025   1.274       .  A
O1016     Cd1017   2.055       .  S
Cd1017     O2128   2.178       .  S
Cd1017     O2132   2.150       .  S
Cd1017     O1019   2.169       .  S
O1018      C1025   1.279       .  A
C1020      O1024   1.280       .  A
C1023      C2225   1.487   1_655  S
C1023      O2129   1.265       .  A
C1026      O1027   1.261       .  A
O1027     Cd2134   1.970   1_455  S
O1028      C1044   1.274       .  A
O1028     Zn1034   2.083       .  S
C1029      O1045   1.273       .  A
C1029      O1042   1.291       .  A
O1030      C2163   1.271       .  A
O1030     Cd1037   2.104       .  S
O1031      C1049   1.291       .  A
O1032     Cd1036   1.979       .  S
O1033      C1044   1.260       .  A
O1033     Cd1036   2.018       .  S
Zn1034     O2165   1.979   1_455  S
Zn1034     O2167   1.985   1_455  S
Zn1034     O1039   1.892       .  S
O1035      C1046   1.289       .  A
O1035     Cd1600   2.181   1_455  S
Cd1036     O1038   2.096       .  S
Cd1036     O1039   1.956       .  S
Cd1037     O1041   2.020   1_565  S
Cd1037     O1039   1.944       .  S
O1038      C1048   1.268       .  A
O1039     Cd2160   2.039   1_465  S
Cd1040     O1595   2.181       .  S
Cd1040     O1042   2.170   1_545  S
Cd1040     O2159   2.039   1_545  S
O1041      C1048   1.260   1_545  A
C1043      C2101   1.482       .  S
C1043      O2150   1.271       .  A
C1043      O1047   1.266       .  A
O1045     Zn2154   1.979       .  S
O1047     Zn2154   1.985       .  S
C1048      C1075   1.474       .  S
C1049      C2229   1.506       .  S
C1049      O2170   1.260       .  A
O1050      C2169   1.260       .  A
O1051      C1067   1.270       .  A
O1051     Zn1057   2.042       .  S
C1052      O1065   1.289   1_554  A
O1053      C1066   1.272       .  A
O1053     Cd1060   2.104       .  S
O1054      C2192   1.292       .  A
O1054     Cd1903   2.185       .  S
O1055      C1069   1.258       .  A
O1056      C1067   1.271       .  A
O1056     Cd1059   2.041       .  S
Zn1057     O2188   1.953       .  S
Zn1057     O1070   1.945       .  S
Zn1057     O1062   1.895       .  S
O1058      C1069   1.288       .  A
O1058     Cd1063   2.182   1_556  S
Cd1059     O1061   2.073       .  S
Cd1059     O1062   1.942       .  S
Cd1060     O1064   2.036       .  S
Cd1060     O1073   2.018       .  S
Cd1060     O1062   1.939       .  S
O1061      C1071   1.270       .  A
Cd1063     O1894   2.185       .  S
Cd1063     O2185   2.159   1_554  S
O1064      C1071   1.276       .  A
O1065     Cd2183   2.159   1_456  S
C1066      C1106   1.500       .  S
C1066      O1070   1.267       .  A
O1068     Zn2177   1.953   1_455  S
C1072      O2174   1.292       .  A
C1072      O1073   1.266       .  A
C1074      C1075   1.418       .  A
C1074      C1079   1.427       .  A
C1075      C1076   1.390       .  A
C1076      H1081   1.084       .  S
C1077      C1078   1.438       .  A
C1077      C1102   1.527       .  S
C1079      H1080   1.083   1_565  S
O1082      C1098   1.272       .  A
O1082     Zn1088   2.041       .  S
C1083      O1096   1.288   1_554  A
O1084      C1097   1.270       .  A
O1084     Cd1091   2.078       .  S
O1085      C1103   1.281       .  A
Zn1088     O2219   1.946   1_455  S
Zn1088     O2221   2.020       .  S
Zn1088     O1093   1.870       .  S
O1089      C1100   1.286       .  A
O1089     Cd1654   2.149   1_455  S
Cd1090     O1092   2.113       .  S
Cd1090     O1093   1.936       .  S
Cd1091     O1093   1.950       .  S
O1092      C1102   1.274       .  A
O1093     Cd1934   2.044   1_455  S
Cd1094     O1649   2.149       .  S
Cd1094     O1096   2.175       .  S
Cd1094     O1933   2.044   1_556  S
C1097      C1108   1.515       .  S
C1097      O2221   1.278       .  A
C1098      C1116   1.494       .  S
O1099     Zn2208   1.946       .  S
O1101      C2217   1.278       .  A
O1101     Zn2208   2.020       .  S
C1103      C2102   1.498       .  S
C1103      O2224   1.271       .  A
O1104      C2223   1.271       .  A
C1105      C1106   1.424       .  A
C1105      C2230   1.431       .  A
C1105      C2143   1.487       .  S
C1106      C2227   1.386       .  A
C1107      C2226   1.386       .  A
C1107      C1108   1.391       .  A
C1107      H1112   1.087       .  S
C1108      C1109   1.441       .  A
C1109      C1110   1.433       .  A
C1109      C2169   1.506       .  S
C1110      C2225   1.431       .  A
C1110      H1111   1.083   1_455  S
C1113      C1114   1.438       .  A
C1113      C1118   1.432       .  A
C1114      C1115   1.393       .  A
C1115      H1120   1.087       .  S
C1116      C1117   1.419       .  A
C1118      H1119   1.083   1_556  S
C1121      C1122   1.421       .  A
C1121      C1126   1.431       .  A
C1121      C1286   1.493       .  S
C1122      C1123   1.379       .  A
C1122      C1184   1.499       .  S
C1123      C1124   1.393       .  A
C1123      H1128   1.087       .  S
C1124      C1125   1.443       .  A
C1124      C1161   1.515       .  S
C1125      C1126   1.435       .  A
C1125      C1349   1.503       .  S
C1126      H1127   1.083       .  S
C1129      C1130   1.426       .  A
C1129      C1134   1.433       .  A
C1129      C1163   1.488       .  S
C1130      C1131   1.389       .  A
C1130      C1188   1.506       .  S
C1131      C1132   1.387       .  A
C1131      H1136   1.086       .  S
C1132      C1133   1.427       .  A
C1132      C1206   1.510       .  S
C1133      C1134   1.436       .  A
C1133      C1243   1.498       .  S
C1134      H1135   1.083       .  S
C1137      C1138   1.422       .  A
C1137      C1142   1.434       .  A
C1137      C1309   1.497       .  S
C1138      C1139   1.380       .  A
C1138      C1300   1.496       .  S
C1139      C1140   1.390       .  A
C1139      H1144   1.088       .  S
C1140      C1141   1.442       .  A
C1140      C1183   1.507       .  S
C1141      C1142   1.436       .  A
C1141      C1192   1.512       .  S
C1142      H1143   1.083       .  S
O1145      C1161   1.272       .  A
O1145     Zn1151   2.039       .  S
C1146      C1277   1.509       .  S
C1146      O1162   1.266       .  A
C1146      O1159   1.290       .  A
O1147      C1160   1.270       .  A
O1147     Cd1154   2.090       .  S
O1148      C1166   1.290   1_554  A
O1148     Cd1157   2.183       .  S
O1149      C1163   1.265       .  A
O1149     Cd1153   2.024       .  S
O1150      C1161   1.274       .  A
O1150     Cd1153   2.038       .  S
Zn1151     O1442   1.956       .  S
Zn1151     O1164   1.983       .  S
Zn1151     O1156   1.885       .  S
O1152      C1163   1.289       .  A
O1152     Cd1437   2.163       .  S
Cd1153     O1155   2.118       .  S
Cd1153     O1156   1.944       .  S
Cd1154     O1158   2.068       .  S
Cd1154     O1167   1.997       .  S
Cd1154     O1156   1.941       .  S
O1155      C1165   1.277       .  A
O1156     Cd1437   2.046       .  S
Cd1157     O1432   2.163   1_554  S
Cd1157     O1159   2.182       .  S
Cd1157     O1436   2.046   1_554  S
O1158      C1165   1.278       .  A
C1160      C1245   1.511       .  S
C1160      O1164   1.271       .  A
O1162     Zn1431   1.956   1_554  S
C1165      C1215   1.503       .  S
C1166      C1673   1.502       .  S
C1166      O1447   1.262       .  A
O1167      C1446   1.263       .  A
O1168      C1184   1.275       .  A
O1168     Zn1174   2.063       .  S
C1169      C1281   1.488       .  S
C1169      O1185   1.267       .  A
C1169      O1182   1.284       .  A
O1170      C1183   1.265       .  A
O1170     Cd1177   2.050       .  S
O1171      C1189   1.287       .  A
O1171     Cd1180   2.157       .  S
O1172      C1186   1.268       .  A
O1172     Cd1176   2.015       .  S
O1173      C1184   1.278       .  A
O1173     Cd1176   2.061       .  S
Zn1174     O1185   1.968       .  S
Zn1174     O1187   2.001       .  S
Zn1174     O1179   1.892       .  S
O1175      C1186   1.289       .  A
O1175     Cd1180   2.158       .  S
Cd1176     O1178   2.112       .  S
Cd1176     O1179   1.959       .  S
Cd1177     O1181   1.990       .  S
Cd1177     O1190   2.007       .  S
Cd1177     O1179   1.938       .  S
O1178      C1188   1.272       .  A
O1179     Cd1180   2.026       .  S
Cd1180     O1182   2.148       .  S
O1181      C1188   1.265       .  A
C1183      O1187   1.276       .  A
C1186      C1214   1.486       .  S
C1189      C1269   1.495       .  S
C1189      O1190   1.262       .  A
O1191      C1207   1.272       .  A
O1191     Zn1197   2.064       .  S
C1192      O1208   1.265       .  A
C1192      O1205   1.289       .  A
O1193      C1206   1.271       .  A
O1193     Cd1200   2.082       .  S
O1194      C1212   1.289       .  A
O1194     Cd1763   2.176       .  S
O1195      C1769   1.273       .  A
O1195     Cd1199   2.049       .  S
O1196      C1207   1.274       .  A
O1196     Cd1199   2.062       .  S
Zn1197     O1208   1.971       .  S
Zn1197     O1210   2.023       .  S
Zn1197     O1202   1.871       .  S
O1198      C1209   1.285       .  A
O1198     Cd1763   2.159   1_565  S
Cd1199     O1201   2.055       .  S
Cd1199     O1202   1.940       .  S
Cd1200     O1204   2.087       .  S
Cd1200     O1773   2.061       .  S
Cd1200     O1202   1.970       .  S
O1201      C1211   1.267       .  A
O1202     Cd1203   2.029       .  S
Cd1203     O1754   2.176       .  S
Cd1203     O1758   2.159       .  S
Cd1203     O1205   2.179       .  S
O1204      C1211   1.280       .  A
C1206      O1210   1.277       .  A
C1207      C1270   1.522       .  S
C1209      C1914   1.504       .  S
C1209      O1755   1.273   1_565  A
C1211      C1254   1.507       .  S
C1212      C1218   1.509       .  S
C1212      O1213   1.269       .  A
O1213     Cd1760   2.061   1_545  S
C1214      C1215   1.421       .  A
C1214      C1219   1.436       .  A
C1215      C1216   1.376       .  A
C1216      C1217   1.394       .  A
C1216      H1221   1.088       .  S
C1217      C1218   1.433       .  A
C1217      C1237   1.493       .  S
C1218      C1219   1.436       .  A
C1219      H1220   1.083       .  S
O1222      C1238   1.274       .  A
O1222     Zn1228   2.050       .  S
C1223      C1526   1.494   1_556  S
C1223      O1519   1.263       .  A
C1223      O1236   1.288   1_556  A
O1224      C1237   1.266       .  A
O1224     Cd1231   2.062       .  S
O1225      C1243   1.289       .  A
O1225     Cd1794   2.159       .  S
O1226      C1800   1.264       .  A
O1226     Cd1510   2.018   1_554  S
O1227      C1238   1.276       .  A
O1227     Cd1230   2.036       .  S
Zn1228     O1239   1.944       .  S
Zn1228     O1241   1.973       .  S
Zn1228     O1233   1.862       .  S
O1229      C1240   1.291       .  A
O1229     Cd2074   2.175   1_554  S
Cd1230     O1506   2.018       .  S
Cd1230     O1232   2.109   1_545  S
Cd1230     O1233   1.941       .  S
Cd1231     O1795   2.016       .  S
Cd1231     O1804   2.033   1_545  S
Cd1231     O1233   1.936       .  S
O1232      C1242   1.272   1_565  A
O1233     Cd1234   2.010   1_545  S
Cd1234     O1785   2.159       .  S
Cd1234     O2069   2.175       .  S
Cd1234     O1516   2.169   1_565  S
O1235      C1802   1.261       .  A
O1235     Cd1791   2.016       .  S
O1236     Cd1514   2.169   1_544  S
C1237      O1241   1.271       .  A
C1238      C1394   1.510       .  S
O1239      C1503   1.263       .  A
C1240      C1918   1.490       .  S
C1240      O1786   1.264       .  A
C1242      C1256   1.478   1_545  S
C1242      O1795   1.261       .  A
C1243      O1244   1.275       .  A
O1244     Cd1791   2.033       .  S
C1245      C1246   1.427       .  A
C1245      C1530   1.384       .  A
C1246      C1527   1.434       .  A
C1246      C1503   1.494       .  S
C1247      C1526   1.434       .  A
C1247      C1248   1.436       .  A
C1247      H1252   1.083   1_554  S
C1248      C1249   1.439       .  A
C1248      C1643   1.503       .  S
C1249      C1250   1.391       .  A
C1249      C1347   1.512       .  S
C1250      C1525   1.384       .  A
C1250      H1251   1.087       .  S
C1253      C1254   1.437       .  A
C1253      C1258   1.433       .  A
C1253      C1886   1.497       .  S
C1254      C1255   1.388       .  A
C1255      C1816   1.382       .  A
C1255      H1260   1.088       .  S
C1256      C1815   1.382       .  A
C1256      C1257   1.419       .  A
C1257      C1818   1.428   1_565  A
C1257      C1940   1.491   1_565  S
C1258      C1817   1.428       .  A
C1258      H1259   1.083       .  S
C1261      C1262   1.421       .  A
C1263      C1264   1.435       .  A
C1263      H1268   1.083       .  S
C1264      C1265   1.430   1_655  A
C1264      C1352   1.498       .  S
C1265      C1266   1.381       .  A
C1265      C1305   1.508   1_455  S
C1266      H1267   1.077       .  S
C1269      C1270   1.442       .  A
C1269      C1274   1.436       .  A
C1270      C1271   1.394       .  A
C1271      C1272   1.386       .  A
C1271      H1276   1.082       .  S
C1272      C1273   1.420       .  A
C1272      C1324   1.489       .  S
C1273      C1274   1.425       .  A
C1273      C1306   1.503       .  S
C1274      H1275   1.083       .  S
C1277      C1278   1.439       .  A
C1277      C1282   1.439       .  A
C1278      C1279   1.391       .  A
C1278      C1351   1.507       .  S
C1279      C1280   1.374       .  A
C1279      H1284   1.086       .  S
C1280      C1281   1.417       .  A
C1280      C1301   1.500       .  S
C1281      C1282   1.437       .  A
C1282      H1283   1.083       .  S
O1285      C1301   1.274       .  A
O1285     Zn1291   2.050       .  S
C1286      O1302   1.266       .  A
C1286      O1299   1.289       .  A
O1287      C1300   1.268       .  A
O1287     Cd1294   2.072       .  S
O1288      C1306   1.284       .  A
O1289     Cd1293   2.013       .  S
O1290      C1301   1.277       .  A
O1290     Cd1293   2.048       .  S
Zn1291     O1302   1.952       .  S
Zn1291     O1304   2.022       .  S
Zn1291     O1296   1.884       .  S
O1292      C1303   1.285       .  A
Cd1293     O1295   2.112       .  S
Cd1293     O1296   1.947       .  S
Cd1294     O1298   2.072       .  S
Cd1294     O1296   1.928       .  S
O1295      C1305   1.274       .  A
O1296     Cd1297   2.055       .  S
Cd1297     O1299   2.169       .  S
O1298      C1305   1.279       .  A
C1300      O1304   1.280       .  A
C1306      O1307   1.261       .  A
O1308      C1324   1.274       .  A
O1308     Zn1314   2.083       .  S
C1309      O1325   1.273       .  A
C1309      O1322   1.291       .  A
O1310     Cd1317   2.104       .  S
O1311      C1329   1.291   1_655  A
O1311     Cd1880   2.197       .  S
O1312      C1886   1.261       .  A
O1312     Cd1316   1.979       .  S
O1313      C1324   1.260       .  A
O1313     Cd1316   2.018       .  S
Zn1314     O1319   1.893       .  S
O1315      C1326   1.289   1_545  A
Cd1316     O1318   2.096       .  S
Cd1316     O1319   1.956       .  S
Cd1317     O1321   2.020       .  S
Cd1317     O1890   1.979       .  S
Cd1317     O1319   1.944       .  S
O1318      C1328   1.268       .  A
Cd1320     O1871   2.197       .  S
Cd1320     O1322   2.170       .  S
O1321      C1328   1.260       .  A
C1323      O1327   1.266   1_455  A
C1326      C1813   1.497       .  S
C1326      O1872   1.261       .  A
C1328      C1355   1.474       .  S
O1330     Cd1877   1.979   1_545  S
O1331      C1347   1.270       .  A
O1331     Zn1337   2.042       .  S
C1332      C1677   1.488       .  S
C1332      O1628   1.269       .  A
C1332      O1345   1.289       .  A
O1333      C1346   1.272   1_655  A
O1333     Cd1340   2.104       .  S
O1335      C1349   1.258       .  A
O1335     Cd1619   1.990       .  S
O1336      C1347   1.271       .  A
O1336     Cd1339   2.041       .  S
Zn1337     O1350   1.945       .  S
Zn1337     O1342   1.896       .  S
O1338      C1349   1.288       .  A
O1338     Cd1343   2.183       .  S
Cd1339     O1615   1.990   1_554  S
Cd1339     O1341   2.073       .  S
Cd1339     O1342   1.942       .  S
Cd1340     O1344   2.036       .  S
Cd1340     O1353   2.018       .  S
Cd1340     O1342   1.939       .  S
O1341      C1351   1.270       .  A
O1342     Cd1623   2.032       .  S
Cd1343     O1622   2.032       .  S
O1344      C1351   1.276       .  A
C1346      C1386   1.500       .  S
C1346      O1350   1.267   1_455  A
O1348      C1612   1.269       .  A
C1352      O1353   1.266       .  A
C1354      C1355   1.418       .  A
C1354      C1359   1.427       .  A
C1354      C1769   1.504       .  S
C1355      C1356   1.390       .  A
C1356      C1917   1.393       .  A
C1356      H1361   1.084       .  S
C1357      C1916   1.393       .  A
C1357      C1358   1.438       .  A
C1357      C1382   1.527       .  S
C1358      C1919   1.434       .  A
C1358      C1800   1.490   1_565  S
C1359      C1918   1.434       .  A
C1359      H1360   1.083       .  S
O1362      C1378   1.272       .  A
O1362     Zn1368   2.041   1_556  S
C1363      C1528   1.503       .  S
C1363      O1659   1.262       .  A
C1363      O1376   1.288       .  A
O1364      C1377   1.270       .  A
O1364     Cd1371   2.078       .  S
O1365      C1383   1.281       .  A
O1365     Cd2214   2.143   1_554  S
O1366      C1940   1.270       .  A
O1366     Cd1650   2.015       .  S
O1367      C1658   1.278       .  A
O1367     Cd1650   2.063       .  S
Zn1368     O1373   1.870       .  S
O1369      C1380   1.286       .  A
Cd1370     O1646   2.014   1_554  S
Cd1370     O1647   2.063       .  S
Cd1370     O1372   2.113       .  S
Cd1370     O1373   1.936       .  S
Cd1371     O1935   2.086   1_545  S
Cd1371     O1944   2.047   1_545  S
Cd1371     O1373   1.950       .  S
O1372      C1382   1.274   1_545  A
Cd1374     O2205   2.143   1_545  S
Cd1374     O1376   2.175       .  S
O1375      C1942   1.279       .  A
O1375     Cd1931   2.086       .  S
C1377      C1388   1.515       .  S
C1378      C1396   1.494       .  S
C1378      O1647   1.278   1_556  A
O1379      C1643   1.262       .  A
C1380      C1817   1.491       .  S
C1380      O1926   1.270       .  A
C1382      O1935   1.279       .  A
O1384     Cd1931   2.047       .  S
C1385      C1386   1.424       .  A
C1387      C1388   1.391       .  A
C1387      H1392   1.087       .  S
C1388      C1389   1.441       .  A
C1389      C1390   1.433       .  A
C1390      H1391   1.083       .  S
C1393      C1394   1.438       .  A
C1393      C1398   1.432       .  A
C1393      C1446   1.502       .  S
C1394      C1395   1.393       .  A
C1395      C1676   1.378       .  A
C1395      H1400   1.087       .  S
C1396      C1675   1.378       .  A
C1396      C1397   1.419       .  A
C1397      C1678   1.431       .  A
C1397      C1612   1.488   1_556  S
C1398      C1677   1.431       .  A
C1398      H1399   1.083       .  S
C1401      C1402   1.421       .  A
C1401      C1406   1.431       .  A
C1401      C1566   1.493       .  S
C1402      C1403   1.379       .  A
C1402      C1464   1.499       .  S
C1403      C1404   1.393       .  A
C1403      H1408   1.087       .  S
C1404      C1405   1.443       .  A
C1404      C1441   1.515       .  S
C1405      C1406   1.435       .  A
C1405      C1629   1.503       .  S
C1406      H1407   1.083       .  S
C1409      C1410   1.426       .  A
C1409      C1414   1.433       .  A
C1409      C1443   1.488       .  S
C1410      C1411   1.389       .  A
C1410      C1468   1.506       .  S
C1411      C1412   1.387       .  A
C1411      H1416   1.086       .  S
C1412      C1413   1.427       .  A
C1412      C1486   1.510       .  S
C1413      C1414   1.436       .  A
C1413      C1523   1.498       .  S
C1414      H1415   1.083       .  S
C1417      C1418   1.422       .  A
C1417      C1422   1.434       .  A
C1417      C1589   1.497       .  S
C1418      C1419   1.381       .  A
C1418      C1580   1.496       .  S
C1419      C1420   1.390       .  A
C1419      H1424   1.088       .  S
C1420      C1421   1.442       .  A
C1420      C1463   1.507       .  S
C1421      C1422   1.436       .  A
C1421      C1472   1.512       .  S
C1422      H1423   1.083       .  S
O1425      C1441   1.272       .  A
O1425     Zn1431   2.039       .  S
C1426      C1557   1.509       .  S
C1426      O1442   1.266       .  A
C1426      O1439   1.290       .  A
O1427      C1440   1.270   1_556  A
O1427     Cd1434   2.090       .  S
O1428      C1446   1.290       .  A
O1428     Cd1437   2.184       .  S
O1429      C1443   1.265       .  A
O1429     Cd1433   2.024       .  S
O1430      C1441   1.274       .  A
O1430     Cd1433   2.038       .  S
Zn1431     O1444   1.983       .  S
Zn1431     O1436   1.885       .  S
O1432      C1443   1.288       .  A
Cd1433     O1435   2.118       .  S
Cd1433     O1436   1.944       .  S
Cd1434     O1438   2.068       .  S
Cd1434     O1447   1.997       .  S
Cd1434     O1436   1.941       .  S
O1435      C1445   1.277       .  A
Cd1437     O1439   2.181       .  S
O1438      C1445   1.278       .  A
C1440      C1525   1.511       .  S
C1440      O1444   1.271   1_554  A
C1445      C1495   1.503       .  S
O1448      C1464   1.275       .  A
O1448     Zn1454   2.063       .  S
C1449      C1561   1.488       .  S
C1449      O1465   1.267       .  A
C1449      O1462   1.284       .  A
O1450      C1463   1.265       .  A
O1450     Cd1457   2.051       .  S
O1451      C1469   1.287       .  A
O1451     Cd1460   2.157       .  S
O1452      C1466   1.268       .  A
O1452     Cd1456   2.015       .  S
O1453      C1464   1.278       .  A
O1453     Cd1456   2.061       .  S
Zn1454     O1465   1.968       .  S
Zn1454     O1467   2.001       .  S
Zn1454     O1459   1.892       .  S
O1455      C1466   1.289       .  A
O1455     Cd1460   2.158       .  S
Cd1456     O1458   2.112       .  S
Cd1456     O1459   1.958       .  S
Cd1457     O1461   1.990       .  S
Cd1457     O1470   2.007       .  S
Cd1457     O1459   1.938       .  S
O1458      C1468   1.272       .  A
O1459     Cd1460   2.025       .  S
Cd1460     O1462   2.148       .  S
O1461      C1468   1.265       .  A
C1463      O1467   1.276       .  A
C1466      C1494   1.486       .  S
C1469      C1549   1.495       .  S
C1469      O1470   1.262       .  A
O1471      C1487   1.272       .  A
O1471     Zn1477   2.064       .  S
C1472      O1488   1.265       .  A
C1472      O1485   1.289       .  A
O1473      C1486   1.271       .  A
O1473     Cd1480   2.082       .  S
O1474      C1492   1.289       .  A
O1474     Cd2043   2.177       .  S
O1475      C2049   1.273       .  A
O1475     Cd1479   2.049       .  S
O1476      C1487   1.274       .  A
O1476     Cd1479   2.062       .  S
Zn1477     O1488   1.971       .  S
Zn1477     O1490   2.023       .  S
Zn1477     O1482   1.871       .  S
O1478      C1489   1.285       .  A
O1478     Cd2043   2.159   1_565  S
Cd1479     O1481   2.056       .  S
Cd1479     O1482   1.940       .  S
Cd1480     O1484   2.087       .  S
Cd1480     O2053   2.061       .  S
Cd1480     O1482   1.970       .  S
O1481      C1491   1.267       .  A
O1482     Cd1483   2.029       .  S
Cd1483     O2034   2.177       .  S
Cd1483     O2038   2.159       .  S
Cd1483     O1485   2.179       .  S
O1484      C1491   1.279       .  A
C1486      O1490   1.277       .  A
C1487      C1550   1.522       .  S
C1489      C2194   1.504       .  S
C1489      O2035   1.273   1_565  A
C1491      C1534   1.507       .  S
C1492      C1498   1.509       .  S
C1492      O1493   1.269       .  A
O1493     Cd2040   2.061   1_545  S
C1494      C1495   1.421       .  A
C1494      C1499   1.436       .  A
C1495      C1496   1.376       .  A
C1496      C1497   1.394       .  A
C1496      H1501   1.088       .  S
C1497      C1498   1.433       .  A
C1497      C1517   1.493       .  S
C1498      C1499   1.436       .  A
C1499      H1500   1.083       .  S
O1502      C1518   1.274       .  A
O1502     Zn1508   2.049       .  S
C1503      O1516   1.288       .  A
O1504      C1517   1.266       .  A
O1504     Cd1511   2.062       .  S
O1505      C1523   1.289       .  A
O1505     Cd2074   2.159       .  S
O1506      C2080   1.264       .  A
O1507      C1518   1.276       .  A
O1507     Cd1510   2.036       .  S
Zn1508     O1519   1.944       .  S
Zn1508     O1521   1.973       .  S
Zn1508     O1513   1.862       .  S
O1509      C1520   1.291       .  A
O1509     Cd1794   2.175       .  S
Cd1510     O1512   2.109   1_545  S
Cd1510     O1513   1.941       .  S
Cd1511     O2075   2.016       .  S
Cd1511     O2084   2.033   1_545  S
Cd1511     O1513   1.936       .  S
O1512      C1522   1.272   1_565  A
O1513     Cd1514   2.010   1_545  S
Cd1514     O2065   2.159       .  S
Cd1514     O1789   2.175   1_556  S
O1515      C2082   1.261       .  A
O1515     Cd2071   2.016       .  S
C1517      O1521   1.271       .  A
C1518      C1674   1.510       .  S
C1520      C2198   1.490       .  S
C1520      O2066   1.264       .  A
C1522      C1536   1.478   1_545  S
C1522      O2075   1.261       .  A
C1523      O1524   1.275       .  A
O1524     Cd2071   2.033       .  S
C1525      C1526   1.427       .  A
C1527      C1528   1.436       .  A
C1527      H1532   1.083       .  S
C1528      C1529   1.439       .  A
C1529      C1530   1.391       .  A
C1529      C1627   1.512       .  S
C1530      H1531   1.087       .  S
C1533      C1534   1.437       .  A
C1533      C1538   1.433       .  A
C1533      C2166   1.497       .  S
C1534      C1535   1.388       .  A
C1535      C2096   1.382       .  A
C1535      H1540   1.088       .  S
C1536      C2095   1.382       .  A
C1536      C1537   1.419       .  A
C1537      C2098   1.428   1_565  A
C1537      C2220   1.491   1_565  S
C1538      C2097   1.428       .  A
C1538      H1539   1.083       .  S
C1541      C1542   1.421       .  A
C1543      C1544   1.435       .  A
C1543      H1548   1.083       .  S
C1544      C1545   1.430   1_655  A
C1544      C1632   1.498       .  S
C1545      C1546   1.381       .  A
C1545      C1585   1.508   1_455  S
C1546      H1547   1.077       .  S
C1549      C1550   1.442       .  A
C1549      C1554   1.436       .  A
C1550      C1551   1.394       .  A
C1551      C1552   1.386       .  A
C1551      H1556   1.082       .  S
C1552      C1553   1.420       .  A
C1552      C1604   1.489       .  S
C1553      C1554   1.425       .  A
C1553      C1586   1.503       .  S
C1554      H1555   1.083       .  S
C1557      C1558   1.439       .  A
C1557      C1562   1.439       .  A
C1558      C1559   1.391       .  A
C1558      C1631   1.507       .  S
C1559      C1560   1.374       .  A
C1559      H1564   1.086       .  S
C1560      C1561   1.417       .  A
C1560      C1581   1.500       .  S
C1561      C1562   1.437       .  A
C1562      H1563   1.083       .  S
O1565      C1581   1.274       .  A
O1565     Zn1571   2.050       .  S
C1566      O1582   1.266       .  A
C1566      O1579   1.289       .  A
O1567      C1580   1.268       .  A
O1567     Cd1574   2.072       .  S
O1568      C1586   1.284       .  A
O1569     Cd1573   2.013       .  S
O1570      C1581   1.277       .  A
O1570     Cd1573   2.048       .  S
Zn1571     O1582   1.952       .  S
Zn1571     O1584   2.022       .  S
Zn1571     O1576   1.884       .  S
O1572      C1583   1.285       .  A
Cd1573     O1575   2.112       .  S
Cd1573     O1576   1.947       .  S
Cd1574     O1578   2.072       .  S
Cd1574     O1576   1.928       .  S
O1575      C1585   1.274       .  A
O1576     Cd1577   2.055       .  S
Cd1577     O1579   2.169       .  S
O1578      C1585   1.279       .  A
C1580      O1584   1.280       .  A
C1586      O1587   1.261       .  A
O1588      C1604   1.274       .  A
O1588     Zn1594   2.083       .  S
C1589      O1605   1.273       .  A
C1589      O1602   1.291       .  A
O1590     Cd1597   2.104       .  S
O1591      C1609   1.291   1_655  A
O1591     Cd2160   2.197       .  S
O1592      C2166   1.261       .  A
O1592     Cd1596   1.979       .  S
O1593      C1604   1.260       .  A
O1593     Cd1596   2.018       .  S
Zn1594     O1599   1.892       .  S
O1595      C1606   1.289   1_545  A
Cd1596     O1598   2.096       .  S
Cd1596     O1599   1.956       .  S
Cd1597     O1601   2.020       .  S
Cd1597     O2170   1.979       .  S
Cd1597     O1599   1.944       .  S
O1598      C1608   1.268       .  A
Cd1600     O2151   2.197       .  S
Cd1600     O1602   2.170       .  S
O1601      C1608   1.260       .  A
C1603      O1607   1.266   1_455  A
C1606      C2093   1.497       .  S
C1606      O2152   1.261       .  A
C1608      C1635   1.474       .  S
O1610     Cd2157   1.979   1_545  S
O1611      C1627   1.270       .  A
O1611     Zn1617   2.042       .  S
C1612      O1625   1.289   1_554  A
O1613      C1626   1.272   1_655  A
O1613     Cd1620   2.104       .  S
O1615      C1629   1.258       .  A
O1616      C1627   1.271       .  A
O1616     Cd1619   2.041       .  S
Zn1617     O1630   1.945       .  S
Zn1617     O1622   1.895       .  S
O1618      C1629   1.288       .  A
O1618     Cd1623   2.182   1_556  S
Cd1619     O1621   2.073       .  S
Cd1619     O1622   1.942       .  S
Cd1620     O1624   2.036       .  S
Cd1620     O1633   2.018       .  S
Cd1620     O1622   1.939       .  S
O1621      C1631   1.270       .  A
O1624      C1631   1.276       .  A
C1626      C1666   1.500       .  S
C1626      O1630   1.267   1_455  A
C1632      O1633   1.266       .  A
C1634      C1635   1.418       .  A
C1634      C1639   1.427       .  A
C1634      C2049   1.504       .  S
C1635      C1636   1.390       .  A
C1636      C2197   1.393       .  A
C1636      H1641   1.084       .  S
C1637      C2196   1.393       .  A
C1637      C1638   1.438       .  A
C1637      C1662   1.527       .  S
C1638      C2199   1.434       .  A
C1638      C2080   1.490   1_565  S
C1639      C2198   1.434       .  A
C1639      H1640   1.083       .  S
O1642      C1658   1.272       .  A
O1642     Zn1648   2.041       .  S
C1643      O1656   1.288   1_554  A
O1644      C1657   1.270       .  A
O1644     Cd1651   2.078       .  S
O1645      C1663   1.281       .  A
O1645     Cd1934   2.143       .  S
O1646      C2220   1.270       .  A
Zn1648     O1653   1.870       .  S
O1649      C1660   1.286       .  A
Cd1650     O1652   2.113       .  S
Cd1650     O1653   1.936       .  S
Cd1651     O2215   2.086   1_545  S
Cd1651     O2224   2.047   1_545  S
Cd1651     O1653   1.950       .  S
O1652      C1662   1.274   1_545  A
Cd1654     O1925   2.143   1_546  S
Cd1654     O1656   2.175       .  S
O1655      C2222   1.279       .  A
O1655     Cd2211   2.086       .  S
C1657      C1668   1.515       .  S
C1658      C1676   1.494       .  S
C1660      C2097   1.491       .  S
C1660      O2206   1.270       .  A
C1662      O2215   1.279       .  A
O1664     Cd2211   2.047       .  S
C1665      C1666   1.424       .  A
C1667      C1668   1.391       .  A
C1667      H1672   1.087       .  S
C1668      C1669   1.441       .  A
C1669      C1670   1.433       .  A
C1670      H1671   1.083       .  S
C1673      C1674   1.438       .  A
C1673      C1678   1.432       .  A
C1674      C1675   1.393       .  A
C1675      H1680   1.087       .  S
C1676      C1677   1.419       .  A
C1678      H1679   1.083   1_556  S
C1681      C1682   1.421       .  A
C1681      C1686   1.431       .  A
C1681      C1846   1.493       .  S
C1682      C1683   1.379       .  A
C1682      C1744   1.499       .  S
C1683      C1684   1.393       .  A
C1683      H1688   1.087       .  S
C1684      C1685   1.443       .  A
C1684      C1721   1.515       .  S
C1685      C1686   1.435       .  A
C1685      C1909   1.503       .  S
C1686      H1687   1.083       .  S
C1689      C1690   1.426       .  A
C1689      C1694   1.433       .  A
C1689      C1723   1.488       .  S
C1690      C1691   1.389       .  A
C1690      C1748   1.506       .  S
C1691      C1692   1.387       .  A
C1691      H1696   1.086       .  S
C1692      C1693   1.427       .  A
C1692      C1766   1.510       .  S
C1693      C1694   1.436       .  A
C1693      C1803   1.498       .  S
C1694      H1695   1.083       .  S
C1697      C1698   1.422       .  A
C1697      C1702   1.434       .  A
C1697      C1869   1.497       .  S
C1698      C1699   1.380       .  A
C1698      C1860   1.496       .  S
C1699      C1700   1.390       .  A
C1699      H1704   1.088       .  S
C1700      C1701   1.442       .  A
C1700      C1743   1.507       .  S
C1701      C1702   1.436       .  A
C1701      C1752   1.512       .  S
C1702      H1703   1.083       .  S
O1705      C1721   1.272       .  A
O1705     Zn1711   2.039       .  S
C1706      C1837   1.509       .  S
C1706      O1722   1.266       .  A
C1706      O1719   1.290       .  A
O1707      C1720   1.270       .  A
O1707     Cd1714   2.090       .  S
O1708      C1726   1.290   1_554  A
O1708     Cd1717   2.183       .  S
O1709      C1723   1.265       .  A
O1709     Cd1713   2.024       .  S
O1710      C1721   1.274       .  A
O1710     Cd1713   2.038       .  S
Zn1711     O2002   1.956       .  S
Zn1711     O1724   1.983       .  S
Zn1711     O1716   1.885       .  S
O1712      C1723   1.289       .  A
O1712     Cd1997   2.163       .  S
Cd1713     O1715   2.118       .  S
Cd1713     O1716   1.944       .  S
Cd1714     O1718   2.068       .  S
Cd1714     O1727   1.997       .  S
Cd1714     O1716   1.941       .  S
O1715      C1725   1.277       .  A
O1716     Cd1997   2.046       .  S
Cd1717     O1992   2.163   1_554  S
Cd1717     O1719   2.182       .  S
Cd1717     O1996   2.046   1_554  S
O1718      C1725   1.278       .  A
C1720      C1805   1.511       .  S
C1720      O1724   1.271       .  A
O1722     Zn1991   1.956   1_554  S
C1725      C1775   1.503       .  S
C1726      C2233   1.502       .  S
C1726      O2007   1.262       .  A
O1727      C2006   1.263       .  A
O1728      C1744   1.275       .  A
O1728     Zn1734   2.063       .  S
C1729      C1841   1.488       .  S
C1729      O1745   1.267       .  A
C1729      O1742   1.284       .  A
O1730      C1743   1.265       .  A
O1730     Cd1737   2.050       .  S
O1731      C1749   1.287       .  A
O1731     Cd1740   2.157       .  S
O1732      C1746   1.268       .  A
O1732     Cd1736   2.015       .  S
O1733      C1744   1.278       .  A
O1733     Cd1736   2.061       .  S
Zn1734     O1745   1.968       .  S
Zn1734     O1747   2.001       .  S
Zn1734     O1739   1.892       .  S
O1735      C1746   1.289       .  A
O1735     Cd1740   2.158       .  S
Cd1736     O1738   2.112       .  S
Cd1736     O1739   1.959       .  S
Cd1737     O1741   1.990       .  S
Cd1737     O1750   2.007       .  S
Cd1737     O1739   1.938       .  S
O1738      C1748   1.272       .  A
O1739     Cd1740   2.026       .  S
Cd1740     O1742   2.148       .  S
O1741      C1748   1.265       .  A
C1743      O1747   1.276       .  A
C1746      C1774   1.486       .  S
C1749      C1829   1.495       .  S
C1749      O1750   1.262       .  A
O1751      C1767   1.272       .  A
O1751     Zn1757   2.064       .  S
C1752      O1768   1.265       .  A
C1752      O1765   1.289       .  A
O1753      C1766   1.271       .  A
O1753     Cd1760   2.082       .  S
O1754      C1772   1.289       .  A
O1755     Cd1759   2.049   1_545  S
O1756      C1767   1.274       .  A
O1756     Cd1759   2.062       .  S
Zn1757     O1768   1.971       .  S
Zn1757     O1770   2.023       .  S
Zn1757     O1762   1.871       .  S
O1758      C1769   1.285       .  A
Cd1759     O1761   2.055       .  S
Cd1759     O1762   1.940       .  S
Cd1760     O1764   2.087       .  S
Cd1760     O1762   1.970       .  S
O1761      C1771   1.267       .  A
O1762     Cd1763   2.029   1_565  S
Cd1763     O1765   2.179   1_545  S
O1764      C1771   1.280       .  A
C1766      O1770   1.277       .  A
C1767      C1830   1.522       .  S
C1771      C1814   1.507       .  S
C1772      C1778   1.509       .  S
C1772      O1773   1.269       .  A
C1774      C1775   1.421       .  A
C1774      C1779   1.436       .  A
C1775      C1776   1.376       .  A
C1776      C1777   1.394       .  A
C1776      H1781   1.088       .  S
C1777      C1778   1.433       .  A
C1777      C1797   1.493       .  S
C1778      C1779   1.436       .  A
C1779      H1780   1.083       .  S
O1782      C1798   1.274       .  A
O1782     Zn1788   2.050       .  S
C1783      C2086   1.494   1_556  S
C1783      O2079   1.263       .  A
C1783      O1796   1.288   1_556  A
O1784      C1797   1.266       .  A
O1784     Cd1791   2.062       .  S
O1785      C1803   1.289       .  A
O1786     Cd2070   2.018   1_554  S
O1787      C1798   1.276       .  A
O1787     Cd1790   2.036       .  S
Zn1788     O1799   1.944       .  S
Zn1788     O1801   1.973       .  S
Zn1788     O1793   1.862       .  S
O1789      C1800   1.291   1_565  A
Cd1790     O2066   2.018       .  S
Cd1790     O1792   2.109       .  S
Cd1790     O1793   1.941       .  S
Cd1791     O1793   1.936       .  S
O1792      C1802   1.272       .  A
O1793     Cd1794   2.010       .  S
Cd1794     O2076   2.169       .  S
O1796     Cd2074   2.169   1_554  S
C1797      O1801   1.271       .  A
C1798      C1954   1.510       .  S
O1799      C2063   1.263       .  A
C1802      C1816   1.478       .  S
C1803      O1804   1.275       .  A
C1805      C1806   1.427       .  A
C1805      C2090   1.384       .  A
C1806      C2087   1.434       .  A
C1806      C2063   1.494       .  S
C1807      C2086   1.434       .  A
C1807      C1808   1.436       .  A
C1807      H1812   1.083   1_554  S
C1808      C1809   1.439       .  A
C1808      C2203   1.503       .  S
C1809      C1810   1.391       .  A
C1809      C1907   1.512       .  S
C1810      C2085   1.384       .  A
C1810      H1811   1.087       .  S
C1813      C1814   1.437       .  A
C1813      C1818   1.433   1_565  A
C1814      C1815   1.388       .  A
C1815      H1820   1.088       .  S
C1816      C1817   1.419       .  A
C1818      H1819   1.083       .  S
C1821      C1822   1.421       .  A
C1823      C1824   1.435       .  A
C1823      H1828   1.083       .  S
C1824      C1825   1.430   1_655  A
C1824      C1912   1.498       .  S
C1825      C1826   1.381       .  A
C1825      C1865   1.508   1_455  S
C1826      H1827   1.077       .  S
C1829      C1830   1.442       .  A
C1829      C1834   1.436       .  A
C1830      C1831   1.394       .  A
C1831      C1832   1.386       .  A
C1831      H1836   1.082       .  S
C1832      C1833   1.420       .  A
C1832      C1884   1.489       .  S
C1833      C1834   1.425       .  A
C1833      C1866   1.503       .  S
C1834      H1835   1.083       .  S
C1837      C1838   1.439       .  A
C1837      C1842   1.439       .  A
C1838      C1839   1.391       .  A
C1838      C1911   1.507       .  S
C1839      C1840   1.374       .  A
C1839      H1844   1.086       .  S
C1840      C1841   1.417       .  A
C1840      C1861   1.500       .  S
C1841      C1842   1.437       .  A
C1842      H1843   1.083       .  S
O1845      C1861   1.274       .  A
O1845     Zn1851   2.050       .  S
C1846      O1862   1.266       .  A
C1846      O1859   1.289       .  A
O1847      C1860   1.268       .  A
O1847     Cd1854   2.072       .  S
O1848      C1866   1.284       .  A
O1849     Cd1853   2.013       .  S
O1850      C1861   1.277       .  A
O1850     Cd1853   2.048       .  S
Zn1851     O1862   1.952       .  S
Zn1851     O1864   2.022       .  S
Zn1851     O1856   1.884       .  S
O1852      C1863   1.285       .  A
Cd1853     O1855   2.112       .  S
Cd1853     O1856   1.947       .  S
Cd1854     O1858   2.072       .  S
Cd1854     O1856   1.928       .  S
O1855      C1865   1.274       .  A
O1856     Cd1857   2.055       .  S
Cd1857     O1859   2.169       .  S
O1858      C1865   1.279       .  A
C1860      O1864   1.280       .  A
C1866      O1867   1.261       .  A
O1868      C1884   1.274       .  A
O1868     Zn1874   2.083       .  S
C1869      O1885   1.273       .  A
C1869      O1882   1.291       .  A
O1870     Cd1877   2.104       .  S
O1871      C1889   1.291   1_655  A
O1872     Cd1876   1.979       .  S
O1873      C1884   1.260       .  A
O1873     Cd1876   2.018       .  S
Zn1874     O1879   1.893       .  S
O1875      C1886   1.289       .  A
Cd1876     O1878   2.096       .  S
Cd1876     O1879   1.955       .  S
Cd1877     O1881   2.020   1_565  S
Cd1877     O1879   1.944       .  S
O1878      C1888   1.268       .  A
Cd1880     O1882   2.170   1_545  S
O1881      C1888   1.260   1_545  A
C1883      O1887   1.266   1_455  A
C1888      C1915   1.474       .  S
O1891      C1907   1.270       .  A
O1891     Zn1897   2.042       .  S
C1892      C2237   1.488       .  S
C1892      O2188   1.269       .  A
C1892      O1905   1.289       .  A
O1893      C1906   1.272   1_655  A
O1893     Cd1900   2.104       .  S
O1895      C1909   1.258       .  A
O1895     Cd2179   1.990       .  S
O1896      C1907   1.271       .  A
O1896     Cd1899   2.041       .  S
Zn1897     O1910   1.945       .  S
Zn1897     O1902   1.896       .  S
O1898      C1909   1.288       .  A
O1898     Cd1903   2.183       .  S
Cd1899     O2175   1.990   1_554  S
Cd1899     O1901   2.073       .  S
Cd1899     O1902   1.942       .  S
Cd1900     O1904   2.036       .  S
Cd1900     O1913   2.018       .  S
Cd1900     O1902   1.939       .  S
O1901      C1911   1.270       .  A
O1902     Cd2183   2.032       .  S
Cd1903     O2182   2.032       .  S
O1904      C1911   1.276       .  A
C1906      C1946   1.500       .  S
C1906      O1910   1.267   1_455  A
O1908      C2172   1.269       .  A
C1912      O1913   1.266       .  A
C1914      C1915   1.418       .  A
C1914      C1919   1.427       .  A
C1915      C1916   1.390       .  A
C1916      H1921   1.084       .  S
C1917      C1918   1.438       .  A
C1917      C1942   1.527       .  S
C1919      H1920   1.083   1_565  S
O1922      C1938   1.272       .  A
O1922     Zn1928   2.041   1_556  S
C1923      C2088   1.503       .  S
C1923      O2219   1.262       .  A
C1923      O1936   1.288       .  A
O1924      C1937   1.270       .  A
O1924     Cd1931   2.078       .  S
O1925      C1943   1.281       .  A
O1926     Cd2210   2.015       .  S
O1927      C2218   1.278       .  A
O1927     Cd2210   2.063       .  S
Zn1928     O1933   1.870       .  S
O1929      C1940   1.286       .  A
Cd1930     O2206   2.014   1_554  S
Cd1930     O2207   2.063       .  S
Cd1930     O1932   2.113       .  S
Cd1930     O1933   1.936       .  S
Cd1931     O1933   1.950       .  S
O1932      C1942   1.274       .  A
Cd1934     O1936   2.175       .  S
C1937      C1948   1.515       .  S
C1938      C1956   1.494       .  S
C1938      O2207   1.278   1_556  A
O1939      C2203   1.262       .  A
C1945      C1946   1.424       .  A
C1947      C1948   1.391       .  A
C1947      H1952   1.087       .  S
C1948      C1949   1.441       .  A
C1949      C1950   1.433       .  A
C1950      H1951   1.083       .  S
C1953      C1954   1.438       .  A
C1953      C1958   1.432       .  A
C1953      C2006   1.502       .  S
C1954      C1955   1.393       .  A
C1955      C2236   1.378       .  A
C1955      H1960   1.087       .  S
C1956      C2235   1.378       .  A
C1956      C1957   1.419       .  A
C1957      C2238   1.431       .  A
C1957      C2172   1.488   1_556  S
C1958      C2237   1.431       .  A
C1958      H1959   1.083       .  S
C1961      C1962   1.421       .  A
C1961      C1966   1.431       .  A
C1961      C2126   1.493       .  S
C1962      C1963   1.379       .  A
C1962      C2024   1.499       .  S
C1963      C1964   1.393       .  A
C1963      H1968   1.087       .  S
C1964      C1965   1.443       .  A
C1964      C2001   1.515       .  S
C1965      C1966   1.435       .  A
C1965      C2189   1.503       .  S
C1966      H1967   1.083       .  S
C1969      C1970   1.426       .  A
C1969      C1974   1.433       .  A
C1969      C2003   1.488       .  S
C1970      C1971   1.389       .  A
C1970      C2028   1.506       .  S
C1971      C1972   1.387       .  A
C1971      H1976   1.086       .  S
C1972      C1973   1.427       .  A
C1972      C2046   1.510       .  S
C1973      C1974   1.436       .  A
C1973      C2083   1.498       .  S
C1974      H1975   1.083       .  S
C1977      C1978   1.422       .  A
C1977      C1982   1.434       .  A
C1977      C2149   1.497       .  S
C1978      C1979   1.381       .  A
C1978      C2140   1.496       .  S
C1979      C1980   1.390       .  A
C1979      H1984   1.088       .  S
C1980      C1981   1.442       .  A
C1980      C2023   1.507       .  S
C1981      C1982   1.436       .  A
C1981      C2032   1.512       .  S
C1982      H1983   1.083       .  S
O1985      C2001   1.272       .  A
O1985     Zn1991   2.039       .  S
C1986      C2117   1.509       .  S
C1986      O2002   1.266       .  A
C1986      O1999   1.290       .  A
O1987      C2000   1.270   1_556  A
O1987     Cd1994   2.090       .  S
O1988      C2006   1.290       .  A
O1988     Cd1997   2.184       .  S
O1989      C2003   1.265       .  A
O1989     Cd1993   2.024       .  S
O1990      C2001   1.274       .  A
O1990     Cd1993   2.038       .  S
Zn1991     O2004   1.983       .  S
Zn1991     O1996   1.885       .  S
O1992      C2003   1.288       .  A
Cd1993     O1995   2.118       .  S
Cd1993     O1996   1.944       .  S
Cd1994     O1998   2.068       .  S
Cd1994     O2007   1.997       .  S
Cd1994     O1996   1.941       .  S
O1995      C2005   1.277       .  A
Cd1997     O1999   2.181       .  S
O1998      C2005   1.278       .  A
C2000      C2085   1.511       .  S
C2000      O2004   1.271   1_554  A
C2005      C2055   1.503       .  S
O2008      C2024   1.275       .  A
O2008     Zn2014   2.063       .  S
C2009      C2121   1.488       .  S
C2009      O2025   1.267       .  A
C2009      O2022   1.284       .  A
O2010      C2023   1.265       .  A
O2010     Cd2017   2.051       .  S
O2011      C2029   1.287       .  A
O2011     Cd2020   2.157       .  S
O2012      C2026   1.268       .  A
O2012     Cd2016   2.015       .  S
O2013      C2024   1.278       .  A
O2013     Cd2016   2.061       .  S
Zn2014     O2025   1.968       .  S
Zn2014     O2027   2.001       .  S
Zn2014     O2019   1.892       .  S
O2015      C2026   1.289       .  A
O2015     Cd2020   2.158       .  S
Cd2016     O2018   2.112       .  S
Cd2016     O2019   1.958       .  S
Cd2017     O2021   1.990       .  S
Cd2017     O2030   2.007       .  S
Cd2017     O2019   1.938       .  S
O2018      C2028   1.272       .  A
O2019     Cd2020   2.025       .  S
Cd2020     O2022   2.148       .  S
O2021      C2028   1.265       .  A
C2023      O2027   1.276       .  A
C2026      C2054   1.486       .  S
C2029      C2109   1.495       .  S
C2029      O2030   1.262       .  A
O2031      C2047   1.272       .  A
O2031     Zn2037   2.064       .  S
C2032      O2048   1.265       .  A
C2032      O2045   1.289       .  A
O2033      C2046   1.271       .  A
O2033     Cd2040   2.082       .  S
O2034      C2052   1.289       .  A
O2035     Cd2039   2.049   1_545  S
O2036      C2047   1.274       .  A
O2036     Cd2039   2.062       .  S
Zn2037     O2048   1.971       .  S
Zn2037     O2050   2.023       .  S
Zn2037     O2042   1.871       .  S
O2038      C2049   1.285       .  A
Cd2039     O2041   2.056       .  S
Cd2039     O2042   1.940       .  S
Cd2040     O2044   2.087       .  S
Cd2040     O2042   1.970       .  S
O2041      C2051   1.267       .  A
O2042     Cd2043   2.029   1_565  S
Cd2043     O2045   2.179   1_545  S
O2044      C2051   1.279       .  A
C2046      O2050   1.277       .  A
C2047      C2110   1.522       .  S
C2051      C2094   1.507       .  S
C2052      C2058   1.509       .  S
C2052      O2053   1.269       .  A
C2054      C2055   1.421       .  A
C2054      C2059   1.436       .  A
C2055      C2056   1.376       .  A
C2056      C2057   1.394       .  A
C2056      H2061   1.088       .  S
C2057      C2058   1.433       .  A
C2057      C2077   1.493       .  S
C2058      C2059   1.436       .  A
C2059      H2060   1.083       .  S
O2062      C2078   1.274       .  A
O2062     Zn2068   2.049       .  S
C2063      O2076   1.288       .  A
O2064      C2077   1.266       .  A
O2064     Cd2071   2.062       .  S
O2065      C2083   1.289       .  A
O2067      C2078   1.276       .  A
O2067     Cd2070   2.036       .  S
Zn2068     O2079   1.944       .  S
Zn2068     O2081   1.973       .  S
Zn2068     O2073   1.862       .  S
O2069      C2080   1.291   1_565  A
Cd2070     O2072   2.109       .  S
Cd2070     O2073   1.941       .  S
Cd2071     O2073   1.936       .  S
O2072      C2082   1.272       .  A
O2073     Cd2074   2.010       .  S
C2077      O2081   1.271       .  A
C2078      C2234   1.510       .  S
C2082      C2096   1.478       .  S
C2083      O2084   1.275       .  A
C2085      C2086   1.427       .  A
C2087      C2088   1.436       .  A
C2087      H2092   1.083       .  S
C2088      C2089   1.439       .  A
C2089      C2090   1.391       .  A
C2089      C2187   1.512       .  S
C2090      H2091   1.087       .  S
C2093      C2094   1.437       .  A
C2093      C2098   1.433   1_565  A
C2094      C2095   1.388       .  A
C2095      H2100   1.088       .  S
C2096      C2097   1.419       .  A
C2098      H2099   1.083       .  S
C2101      C2102   1.421       .  A
C2103      C2104   1.435       .  A
C2103      H2108   1.083       .  S
C2104      C2105   1.430   1_655  A
C2104      C2192   1.498       .  S
C2105      C2106   1.381       .  A
C2105      C2145   1.508   1_455  S
C2106      H2107   1.077       .  S
C2109      C2110   1.442       .  A
C2109      C2114   1.436       .  A
C2110      C2111   1.394       .  A
C2111      C2112   1.386       .  A
C2111      H2116   1.082       .  S
C2112      C2113   1.420       .  A
C2112      C2164   1.489       .  S
C2113      C2114   1.425       .  A
C2113      C2146   1.503       .  S
C2114      H2115   1.083       .  S
C2117      C2118   1.439       .  A
C2117      C2122   1.439       .  A
C2118      C2119   1.391       .  A
C2118      C2191   1.507       .  S
C2119      C2120   1.374       .  A
C2119      H2124   1.086       .  S
C2120      C2121   1.417       .  A
C2120      C2141   1.500       .  S
C2121      C2122   1.437       .  A
C2122      H2123   1.083       .  S
O2125      C2141   1.274       .  A
O2125     Zn2131   2.050       .  S
C2126      O2142   1.266       .  A
C2126      O2139   1.289       .  A
O2127      C2140   1.268       .  A
O2127     Cd2134   2.072       .  S
O2128      C2146   1.284       .  A
O2129     Cd2133   2.013       .  S
O2130      C2141   1.277       .  A
O2130     Cd2133   2.048       .  S
Zn2131     O2142   1.952       .  S
Zn2131     O2144   2.022       .  S
Zn2131     O2136   1.884       .  S
O2132      C2143   1.285       .  A
Cd2133     O2135   2.112       .  S
Cd2133     O2136   1.947       .  S
Cd2134     O2138   2.072       .  S
Cd2134     O2136   1.928       .  S
O2135      C2145   1.274       .  A
O2136     Cd2137   2.055       .  S
Cd2137     O2139   2.169       .  S
O2138      C2145   1.279       .  A
C2140      O2144   1.280       .  A
C2146      O2147   1.261       .  A
O2148      C2164   1.274       .  A
O2148     Zn2154   2.083       .  S
C2149      O2165   1.273       .  A
C2149      O2162   1.291       .  A
O2150     Cd2157   2.104       .  S
O2151      C2169   1.291   1_655  A
O2152     Cd2156   1.979       .  S
O2153      C2164   1.260       .  A
O2153     Cd2156   2.018       .  S
Zn2154     O2159   1.892       .  S
O2155      C2166   1.289       .  A
Cd2156     O2158   2.096       .  S
Cd2156     O2159   1.956       .  S
Cd2157     O2161   2.020   1_565  S
Cd2157     O2159   1.944       .  S
O2158      C2168   1.268       .  A
Cd2160     O2162   2.170   1_545  S
O2161      C2168   1.260   1_545  A
C2163      O2167   1.266   1_455  A
C2168      C2195   1.474       .  S
O2171      C2187   1.270       .  A
O2171     Zn2177   2.042       .  S
C2172      O2185   1.289   1_554  A
O2173      C2186   1.272   1_655  A
O2173     Cd2180   2.104       .  S
O2175      C2189   1.258       .  A
O2176      C2187   1.271       .  A
O2176     Cd2179   2.041       .  S
Zn2177     O2190   1.945       .  S
Zn2177     O2182   1.895       .  S
O2178      C2189   1.288       .  A
O2178     Cd2183   2.182   1_556  S
Cd2179     O2181   2.073       .  S
Cd2179     O2182   1.942       .  S
Cd2180     O2184   2.036       .  S
Cd2180     O2193   2.018       .  S
Cd2180     O2182   1.939       .  S
O2181      C2191   1.270       .  A
O2184      C2191   1.276       .  A
C2186      C2226   1.500       .  S
C2186      O2190   1.267   1_455  A
C2192      O2193   1.266       .  A
C2194      C2195   1.418       .  A
C2194      C2199   1.427       .  A
C2195      C2196   1.390       .  A
C2196      H2201   1.084       .  S
C2197      C2198   1.438       .  A
C2197      C2222   1.527       .  S
C2199      H2200   1.083   1_565  S
O2202      C2218   1.272       .  A
O2202     Zn2208   2.041       .  S
C2203      O2216   1.288   1_554  A
O2204      C2217   1.270       .  A
O2204     Cd2211   2.078       .  S
O2205      C2223   1.281       .  A
Zn2208     O2213   1.870       .  S
O2209      C2220   1.286       .  A
Cd2210     O2212   2.113       .  S
Cd2210     O2213   1.936       .  S
Cd2211     O2213   1.950       .  S
O2212      C2222   1.274       .  A
Cd2214     O2216   2.175       .  S
C2217      C2228   1.515       .  S
C2218      C2236   1.494       .  S
C2225      C2226   1.424       .  A
C2227      C2228   1.391       .  A
C2227      H2232   1.087       .  S
C2228      C2229   1.441       .  A
C2229      C2230   1.433       .  A
C2230      H2231   1.083       .  S
C2233      C2234   1.438       .  A
C2233      C2238   1.432       .  A
C2234      C2235   1.393       .  A
C2235      H2240   1.087       .  S
C2236      C2237   1.419       .  A
C2238      H2239   1.083   1_556  S
