geometry optimzed in LAMMPS
_audit_creation_date              2020-11-30 
_audit_creation_method            'lammps2cif' 
_symmetry_space_group_name_H-M    'P1' 
_symmetry_Int_Tables_number       1 
_symmetry_cell_setting            triclinic 
loop_ 
_symmetry_equiv_pos_as_xyz 
  x,y,z 
_cell_length_a                    44.208082963354094 
_cell_length_b                    56.21118861352767 
_cell_length_c                    38.79763487296664 
_cell_angle_alpha                 90.3900804877571 
_cell_angle_beta                  90.07969387415257 
_cell_angle_gamma                 90.36303042600176 
loop_ 
_atom_site_label 
_atom_site_type_symbol 
_atom_site_fract_x 
_atom_site_fract_y 
_atom_site_fract_z 
_atom_site_charge 
N1          N  0.34798063  0.27328249  0.82092686    -0.27120
N2          N  0.32277896  0.27727643  0.80368553    -0.34980
C3          C  0.30018525  0.28120600  0.82607346     0.01220
C4          C  0.31137272  0.27910786  0.85935409     0.07240
C5          C  0.34191705  0.27415652  0.85484357    -0.05860
H6          H  0.27761524  0.28592073  0.81821480     0.07910
H7          H  0.35867522  0.27138989  0.87472283     0.09110
Cu8        Cu  0.31970894  0.27735270  0.75055349     0.44170
Cu9        Cu  0.38983118  0.26872169  0.79756903     0.41990
Cu10       Cu  0.38994519  0.27548482  0.70446947     0.43880
N11         N  0.32232431  0.27884253  0.69746947    -0.34510
N12         N  0.34818667  0.27907858  0.68066224    -0.28770
C13         C  0.34248000  0.28124197  0.64686485    -0.04870
C14         C  0.31124767  0.28228437  0.64165416     0.07350
C15         C  0.29941873  0.28044729  0.67481368     0.01150
H16         H  0.36017130  0.28186609  0.62773467     0.08800
H17         H  0.27610828  0.27986264  0.68263473     0.07880
N18         N  0.42873476  0.27099974  0.73380275    -0.35960
N19         N  0.42878623  0.26847113  0.76767533    -0.28140
C20         C  0.45758255  0.26698163  0.77871795    -0.03380
C21         C  0.47648945  0.26862344  0.75042614     0.05230
C22         C  0.45744167  0.27109154  0.72240264     0.03320
H23         H  0.46423570  0.26537337  0.80545314     0.08430
H24         H  0.46393583  0.27337376  0.69573995     0.07260
N25         N  0.63826485  0.27909910  0.82007394    -0.27120
N26         N  0.66402413  0.28193132  0.80331519    -0.34980
C27         C  0.68632394  0.28594329  0.82636387     0.01220
C28         C  0.67400736  0.28583219  0.85928509     0.07240
C29         C  0.64348683  0.28112105  0.85409973    -0.05860
H30         H  0.70977798  0.28878137  0.81959861     0.07910
H31         H  0.62628579  0.27869082  0.87354841     0.09110
Cu32       Cu  0.66737302  0.28049408  0.74978849     0.44170
Cu33       Cu  0.59676850  0.27332350  0.79635133     0.41990
Cu34       Cu  0.59591697  0.27757096  0.70361089     0.43880
N35         N  0.66374428  0.28134234  0.69627413    -0.34510
N36         N  0.63759415  0.28124909  0.67964788    -0.28770
C37         C  0.64283972  0.28299703  0.64560580    -0.04870
C38         C  0.67375269  0.28393955  0.64050179     0.07350
C39         C  0.68635216  0.28276528  0.67313287     0.01150
H40         H  0.62545476  0.28294713  0.62595182     0.08800
H41         H  0.71015510  0.28305629  0.67957689     0.07880
N42         N  0.55727772  0.27278727  0.73309567    -0.35960
N43         N  0.55758326  0.27101821  0.76705555    -0.28140
C44         C  0.52897659  0.26877991  0.77843639    -0.03380
C45         C  0.50978012  0.26919426  0.75025978     0.05230
C46         C  0.52848448  0.27170716  0.72194503     0.03320
H47         H  0.52263067  0.26753831  0.80529841     0.08430
H48         H  0.52168380  0.27313718  0.69523669     0.07260
N49         N  0.13900472  0.29300160  0.32015967    -0.27120
N50         N  0.16475771  0.29219316  0.30294744    -0.34980
C51         C  0.18782787  0.29078306  0.32543364     0.01220
C52         C  0.17604430  0.29070078  0.35845878     0.07240
C53         C  0.14499836  0.29194728  0.35411842    -0.05860
H54         H  0.21139613  0.28982157  0.31819684     0.07910
H55         H  0.12806663  0.29264830  0.37420013     0.09110
Cu56       Cu  0.16747471  0.29308663  0.24972666     0.44170
Cu57       Cu  0.09714518  0.29634509  0.29647390     0.41990
Cu58       Cu  0.09737134  0.29806548  0.20260330     0.43880
N59         N  0.16487936  0.29326170  0.19646927    -0.34510
N60         N  0.13922933  0.29483042  0.17913087    -0.28770
C61         C  0.14527078  0.29404154  0.14518090    -0.04870
C62         C  0.17626224  0.29213182  0.14096734     0.07350
C63         C  0.18793901  0.29156323  0.17407060     0.01150
H64         H  0.12838523  0.29511643  0.12504693     0.08800
H65         H  0.21139354  0.28972307  0.18143778     0.07880
N66         N  0.05859262  0.30005056  0.23238266    -0.35960
N67         N  0.05849399  0.29940380  0.26645874    -0.28140
C68         C  0.02971977  0.29994095  0.27760218    -0.03380
C69         C  0.01085701  0.30088791  0.24918670     0.05230
C70         C  0.02989664  0.30100108  0.22096152     0.03320
H71         H  0.02305391  0.29903312  0.30439256     0.08430
H72         H  0.02340873  0.30109133  0.19405562     0.07260
N73         N  0.84981525  0.29210984  0.31967881    -0.27120
N74         N  0.82374584  0.29512379  0.30378832    -0.34980
C75         C  0.80147531  0.29478574  0.32740110     0.01220
C76         C  0.81398685  0.29119578  0.36000136     0.07240
C77         C  0.84484997  0.28930691  0.35354447    -0.05860
H78         H  0.77788321  0.29704334  0.32103199     0.07910
H79         H  0.86280103  0.28569177  0.37149010     0.09110
Cu80       Cu  0.82001851  0.29759747  0.25032067     0.44170
Cu81       Cu  0.89133227  0.29302279  0.29519126     0.41990
Cu82       Cu  0.89087184  0.29429048  0.20247267     0.43880
N83         N  0.82272539  0.29427038  0.19680624    -0.34510
N84         N  0.84844511  0.29209750  0.17968495    -0.28770
C85         C  0.84233395  0.28928642  0.14589714    -0.04870
C86         C  0.81133352  0.28991898  0.14146990     0.07350
C87         C  0.79959491  0.29322391  0.17421371     0.01150
H88         H  0.85925296  0.28773759  0.12590151     0.08800
H89         H  0.77599905  0.29486937  0.18106587     0.07880
N90         N  0.93001317  0.29714971  0.23178287    -0.35960
N91         N  0.93008065  0.29660545  0.26583427    -0.28140
C92         C  0.95873083  0.29836250  0.27724317    -0.03380
C93         C  0.97761620  0.30002897  0.24899332     0.05230
C94         C  0.95868064  0.29925332  0.22057295     0.03320
H95         H  0.96529918  0.29803061  0.30411737     0.08430
H96         H  0.96523768  0.29973774  0.19372129     0.07260
N97         N  0.34579484  0.08490184  0.02673217    -0.27120
N98         N  0.35641833  0.07214890  0.05255586    -0.34980
C99         C  0.35756363  0.04915707  0.04291619     0.01220
C100        C  0.34772757  0.04737213  0.00923134     0.07240
C101        C  0.34060910  0.07033657  0.99960800    -0.05860
H102        H  0.36631548  0.03497557  0.05871932     0.07910
H103        H  0.33216634  0.07601383  0.97481526     0.09110
Cu104      Cu  0.37292871  0.08664140  0.09803893     0.44170
Cu105      Cu  0.33774772  0.12137439  0.03046731     0.41990
Cu106      Cu  0.36154860  0.14903175  0.11096412     0.43880
N107        N  0.39474756  0.10621354  0.13607428    -0.34510
N108        N  0.39105215  0.12935368  0.14028851    -0.28770
C109        C  0.41008198  0.13729109  0.16490389    -0.04870
C110        C  0.42641786  0.11814955  0.17679349     0.07350
C111        C  0.41610647  0.09871264  0.15808171     0.01150
H112        H  0.41207870  0.15565162  0.17320812     0.08800
H113        H  0.42409456  0.08059767  0.15965257     0.07880
N114        N  0.33445410  0.16554799  0.07518745    -0.35960
N115        N  0.32692999  0.15608902  0.04511430    -0.28140
C116        C  0.31058457  0.17202749  0.02748643    -0.03380
C117        C  0.30751194  0.19257267  0.04742858     0.05230
C118        C  0.32279205  0.18749218  0.07773136     0.03320
H119        H  0.30179279  0.16885706  0.00182264     0.08430
H120        H  0.32507580  0.19851786  0.10046632     0.07260
C121        C  0.25416360  0.27845840  0.99344052     0.00730
C122        C  0.23433542  0.29395339  0.00785497     0.00730
N123        N  0.14458505  0.48726813  0.97213240    -0.27120
N124        N  0.13150973  0.49969929  0.94746734    -0.34980
C125        C  0.12983307  0.52261050  0.95748193     0.01220
C126        C  0.14201142  0.52457623  0.99015892     0.07240
C127        C  0.15090512  0.50187105  0.99885498    -0.05860
H128        H  0.11918565  0.53654558  0.94277171     0.07910
H129        H  0.16116683  0.49636065  0.02282199     0.09110
Cu130      Cu  0.11289807  0.48460612  0.90334464     0.44170
Cu131      Cu  0.15385996  0.45114238  0.96795344     0.41990
Cu132      Cu  0.12234672  0.42143019  0.89286576     0.43880
N133        N  0.09058229  0.46457618  0.86605545    -0.34510
N134        N  0.09355775  0.44129167  0.86273682    -0.28770
C135        C  0.07477333  0.43335639  0.83785695    -0.04870
C136        C  0.05933766  0.45262456  0.82486609     0.07350
C137        C  0.06990882  0.47213402  0.84324318     0.01150
H138        H  0.07237801  0.41492066  0.83005412     0.08800
H139        H  0.06263358  0.49038636  0.84078527     0.07880
N140        N  0.15163659  0.40539595  0.92696062    -0.35960
N141        N  0.16299060  0.41601903  0.95462148    -0.28140
C142        C  0.18066643  0.40050331  0.97141000    -0.03380
C143        C  0.18018138  0.37902528  0.95360366     0.05230
C144        C  0.16172928  0.38293022  0.92537406     0.03320
H145        H  0.19249803  0.40441818  0.99523558     0.08430
H146        H  0.15605841  0.37047122  0.90497768     0.07260
C147        C  0.73226245  0.27953302  0.99227848     0.00730
C148        C  0.75419517  0.29348998  0.00720193     0.00730
N149        N  0.64358120  0.08311986  0.03187111    -0.27120
N150        N  0.62890001  0.07081833  0.05552480    -0.34980
C151        C  0.62571306  0.04818361  0.04453920     0.01220
C152        C  0.63858054  0.04637585  0.01220297     0.07240
C153        C  0.64949949  0.06883007  0.00478981    -0.05860
H154        H  0.61370837  0.03438910  0.05833159     0.07910
H155        H  0.66082968  0.07439067  0.98146333     0.09110
Cu156      Cu  0.61052279  0.08655030  0.09910805     0.44170
Cu157      Cu  0.65441258  0.11878270  0.03793556     0.41990
Cu158      Cu  0.61654474  0.15161966  0.10537593     0.43880
N159        N  0.58845206  0.10725819  0.13550984    -0.34510
N160        N  0.59012419  0.13074983  0.13733949    -0.28770
C161        C  0.57157529  0.13848958  0.16238933    -0.04870
C162        C  0.55760215  0.11894480  0.17692352     0.07350
C163        C  0.56880989  0.09945520  0.15936349     0.01150
H164        H  0.56815098  0.15699767  0.16907383     0.08800
H165        H  0.56254531  0.08100234  0.16297348     0.07880
N166        N  0.64661526  0.16706678  0.07124298    -0.35960
N167        N  0.66142751  0.15463175  0.04783156    -0.28140
C168        C  0.68005487  0.16919924  0.03060386    -0.03380
C169        C  0.67620217  0.19227137  0.04278922     0.05230
C170        C  0.65499119  0.19006744  0.06898573     0.03320
H171        H  0.69536933  0.16307958  0.01085687     0.08430
H172        H  0.64588133  0.20414470  0.08494169     0.07260
N173        N  0.83951500  0.48880053  0.96807716    -0.27120
N174        N  0.85473254  0.50085932  0.94454990    -0.34980
C175        C  0.85737331  0.52366714  0.95492705     0.01220
C176        C  0.84356598  0.52589210  0.98668110     0.07240
C177        C  0.83269821  0.50347871  0.99443609    -0.05860
H178        H  0.86974356  0.53730060  0.94121518     0.07910
H179        H  0.82087616  0.49818772  0.01757873     0.09110
Cu180      Cu  0.87473587  0.48509548  0.90186222     0.44170
Cu181      Cu  0.82876075  0.45297562  0.96319575     0.41990
Cu182      Cu  0.86668862  0.42121649  0.89439354     0.43880
N183        N  0.89764102  0.46455867  0.86587001    -0.34510
N184        N  0.89521428  0.44114088  0.86367573    -0.28770
C185        C  0.91392722  0.43312598  0.83894971    -0.04870
C186        C  0.92877273  0.45246197  0.82490970     0.07350
C187        C  0.91793177  0.47209332  0.84252728     0.01150
H188        H  0.91660838  0.41460237  0.83188917     0.08800
H189        H  0.92466751  0.49045945  0.83907571     0.07880
N190        N  0.83488969  0.40588176  0.92643836    -0.35960
N191        N  0.82053292  0.41752953  0.95112247    -0.28140
C192        C  0.80136466  0.40249741  0.96694582    -0.03380
C193        C  0.80385097  0.38033530  0.95146325     0.05230
C194        C  0.82549004  0.38311116  0.92609128     0.03320
H195        H  0.78759644  0.40714030  0.98898864     0.08430
H196        H  0.83408301  0.36950109  0.90891903     0.07260
O197        O  0.46010052  0.13826266  0.21491895    -0.72780
O198        O  0.52389612  0.13846084  0.28866834    -0.73760
O199        O  0.52438699  0.13861802  0.21555353    -0.62380
O200        O  0.45954646  0.13822297  0.28759076    -0.70790
O201        O  0.45977077  0.09869326  0.28727972    -0.70340
O202        O  0.52432233  0.09909374  0.21511048    -0.61600
O203        O  0.52365013  0.09893910  0.28817227    -0.74100
O204        O  0.46038153  0.09873857  0.21437201    -0.72880
Cu205      Cu  0.49202955  0.13980479  0.25170884     1.04560
Cu206      Cu  0.49206416  0.09750196  0.25121801     1.04330
C207        C  0.45010202  0.11841664  0.20322458     0.93420
C208        C  0.53370057  0.11867902  0.30009941     0.92560
C209        C  0.53443066  0.11889924  0.20386927     0.84700
C210        C  0.44933731  0.11837729  0.29857946     0.90980
N211        N  0.34560092  0.08648374  0.47448578    -0.27120
N212        N  0.35593554  0.07344293  0.44860145    -0.34980
C213        C  0.35672313  0.05052360  0.45810767     0.01220
C214        C  0.34691805  0.04908909  0.49175405     0.07240
C215        C  0.34021894  0.07217674  0.50153968    -0.05860
H216        H  0.36503316  0.03612185  0.44216206     0.07910
H217        H  0.33173228  0.07808799  0.52628333     0.09110
Cu218      Cu  0.37205928  0.08733179  0.40297835     0.44170
Cu219      Cu  0.33752282  0.12282304  0.47051915     0.41990
Cu220      Cu  0.35885390  0.14900563  0.38854221     0.43880
N221        N  0.39346997  0.10642933  0.36472117    -0.34510
N222        N  0.38915577  0.12940418  0.35998026    -0.28770
C223        C  0.40825671  0.13722267  0.33558841    -0.04870
C224        C  0.42524771  0.11814853  0.32438719     0.07350
C225        C  0.41527058  0.09888672  0.34325579     0.01150
H226        H  0.40988715  0.15546626  0.32701452     0.08800
H227        H  0.42385323  0.08091315  0.34227121     0.07880
N228        N  0.33149546  0.16553738  0.42420880    -0.35960
N229        N  0.32513497  0.15675998  0.45483815    -0.28140
C230        C  0.30854423  0.17272255  0.47232368    -0.03380
C231        C  0.30402329  0.19257357  0.45169358     0.05230
C232        C  0.31875323  0.18702946  0.42113927     0.03320
H233        H  0.30067309  0.17004546  0.49839730     0.08430
H234        H  0.32008864  0.19741732  0.39792360     0.07260
N235        N  0.14373642  0.48919923  0.52828370    -0.27120
N236        N  0.12820297  0.50105405  0.55184357    -0.34980
C237        C  0.12383984  0.52342354  0.54090224     0.01220
C238        C  0.13678423  0.52556299  0.50872360     0.07240
C239        C  0.14905470  0.50357806  0.50133338    -0.05860
H240        H  0.11124595  0.53684627  0.55479836     0.07910
H241        H  0.16115806  0.49846434  0.47825458     0.09110
Cu242      Cu  0.11056402  0.48569830  0.59589602     0.44170
Cu243      Cu  0.15747710  0.45419395  0.53428065     0.41990
Cu244      Cu  0.12297424  0.42298454  0.60591350     0.43880
N245        N  0.08944926  0.46532505  0.63317697    -0.34510
N246        N  0.09328925  0.44213725  0.63624204    -0.28770
C247        C  0.07506989  0.43393701  0.66129574    -0.04870
C248        C  0.05915188  0.45295718  0.67466449     0.07350
C249        C  0.06882028  0.47256434  0.65631200     0.01150
H250        H  0.07345140  0.41551265  0.66903348     0.08800
H251        H  0.06094705  0.49066610  0.65900248     0.07880
N252        N  0.15476892  0.40811738  0.57338134    -0.35960
N253        N  0.16785940  0.41944458  0.54756761    -0.28140
C254        C  0.18654394  0.40435071  0.53109121    -0.03380
C255        C  0.18478093  0.38249201  0.54716404     0.05230
C256        C  0.16450137  0.38555156  0.57385913     0.03320
H257        H  0.19912722  0.40858420  0.50800774     0.08430
H258        H  0.15656433  0.37212243  0.59159830     0.07260
C259        C  0.25306783  0.27929997  0.50658394     0.00730
C260        C  0.23340524  0.29498408  0.49219690     0.00730
C261        C  0.72662745  0.28174746  0.50419580     0.00730
C262        C  0.74675952  0.29701197  0.48900141     0.00730
N263        N  0.64575321  0.08336043  0.47096593    -0.27120
N264        N  0.63031514  0.07120323  0.44741888    -0.34980
C265        C  0.62726403  0.04854335  0.45783731     0.01220
C266        C  0.64102366  0.04650242  0.48961658     0.07240
C267        C  0.65230514  0.06886954  0.49737438    -0.05860
H268        H  0.61475896  0.03487611  0.44404463     0.07910
H269        H  0.66434022  0.07423323  0.52048101     0.09110
Cu270      Cu  0.61060401  0.08639130  0.40440298     0.44170
Cu271      Cu  0.65754387  0.11898689  0.46602766     0.41990
Cu272      Cu  0.61993880  0.14953151  0.39635114     0.43880
N273        N  0.58778326  0.10650376  0.36823857    -0.34510
N274        N  0.59065368  0.12985130  0.36592654    -0.28770
C275        C  0.57197011  0.13783026  0.34126327    -0.04870
C276        C  0.55669011  0.11851570  0.32735487     0.07350
C277        C  0.56723930  0.09893965  0.34499268     0.01150
H278        H  0.56969143  0.15630050  0.33406869     0.08800
H279        H  0.56017189  0.08061160  0.34158978     0.07880
N280        N  0.65220639  0.16512110  0.42777881    -0.35960
N281        N  0.66646648  0.15408637  0.45294764    -0.28140
C282        C  0.68550648  0.16957644  0.46851612    -0.03380
C283        C  0.68294088  0.19134653  0.45230091     0.05230
C284        C  0.66150919  0.18786052  0.42679934     0.03320
H285        H  0.69896466  0.16562016  0.49105136     0.08430
H286        H  0.65263382  0.20109324  0.40942719     0.07260
N287        N  0.84018324  0.49040344  0.53163758    -0.27120
N288        N  0.85782215  0.50199104  0.55367956    -0.34980
C289        C  0.86212787  0.52433820  0.54239535     0.01220
C290        C  0.84672498  0.52673327  0.51163199     0.07240
C291        C  0.83323675  0.50490564  0.50537877    -0.05860
H292        H  0.87639142  0.53751503  0.55490606     0.07910
H293        H  0.81959816  0.49987039  0.48330035     0.09110
Cu294      Cu  0.87789631  0.48584120  0.59572700     0.44170
Cu295      Cu  0.82708739  0.45528037  0.53828680     0.41990
Cu296      Cu  0.86895541  0.42155882  0.60149038     0.43880
N297        N  0.89974641  0.46487426  0.63167759    -0.34510
N298        N  0.89716284  0.44144755  0.63319212    -0.28770
C299        C  0.91516719  0.43333990  0.65843673    -0.04870
C300        C  0.92968117  0.45261434  0.67350397     0.07350
C301        C  0.91941184  0.47229935  0.65596098     0.01150
H302        H  0.91756684  0.41479817  0.66518459     0.08800
H303        H  0.92613083  0.49063853  0.66009955     0.07880
N304        N  0.83500826  0.40718875  0.57096553    -0.35960
N305        N  0.81879225  0.41980925  0.54923435    -0.28140
C306        C  0.79793490  0.40559361  0.53446992    -0.03380
C307        C  0.80120133  0.38267105  0.54715358     0.05230
C308        C  0.82527300  0.38449297  0.57012182     0.03320
H309        H  0.78196390  0.41161436  0.51534997     0.08430
H310        H  0.83596889  0.37040065  0.58432783     0.07260
O311        O  0.96165625  0.43249981  0.78599284    -0.72780
O312        O  0.02616892  0.43267531  0.71306540    -0.73760
O313        O  0.02598538  0.43260855  0.78617631    -0.62380
O314        O  0.96191038  0.43254093  0.71267390    -0.70790
O315        O  0.96225162  0.47206128  0.71331653    -0.70340
O316        O  0.02594618  0.47212835  0.78667617    -0.61600
O317        O  0.02598307  0.47219459  0.71357370    -0.74100
O318        O  0.96207954  0.47201736  0.78645562    -0.72880
Cu319      Cu  0.99390024  0.43115752  0.74948132     1.04560
Cu320      Cu  0.99405747  0.47344934  0.75003926     1.04330
C321        C  0.95186126  0.45228173  0.79780013     0.93420
C322        C  0.03608180  0.45254343  0.70175835     0.92560
C323        C  0.03602287  0.45242050  0.79796308     0.84700
C324        C  0.95223710  0.45235290  0.70122393     0.90980
N325        N  0.34689112  0.80380556  0.32391881    -0.27120
N326        N  0.32119034  0.79958749  0.30748050    -0.34980
C327        C  0.29944464  0.79499587  0.33082380     0.01220
C328        C  0.31196004  0.79633203  0.36367571     0.07240
C329        C  0.34204300  0.80243867  0.35800103    -0.05860
H330        H  0.27632830  0.79054755  0.32420656     0.07910
H331        H  0.35943954  0.80586538  0.37695644     0.09110
Cu332      Cu  0.31688460  0.79959171  0.25402848     0.44170
Cu333      Cu  0.38866695  0.80837579  0.30037496     0.41990
Cu334      Cu  0.38860624  0.79715583  0.20976478     0.43880
N335        N  0.32089614  0.79760887  0.20063878    -0.34510
N336        N  0.34723457  0.79528428  0.18511356    -0.28770
C337        C  0.34280017  0.79305930  0.15106545    -0.04870
C338        C  0.31204232  0.79483632  0.14407368     0.07350
C339        C  0.29893234  0.79750904  0.17655056     0.01150
H340        H  0.36107506  0.78997646  0.13331741     0.08800
H341        H  0.27519414  0.79937838  0.18246346     0.07880
N342        N  0.42779203  0.80236961  0.23788512    -0.35960
N343        N  0.42805310  0.80656710  0.27142615    -0.28140
C344        C  0.45695359  0.80790430  0.28229520    -0.03380
C345        C  0.47564319  0.80449536  0.25409113     0.05230
C346        C  0.45638509  0.80114208  0.22638090     0.03320
H347        H  0.46379707  0.81059057  0.30883826     0.08430
H348        H  0.46262112  0.79737375  0.19994857     0.07260
N349        N  0.63858301  0.79518644  0.32057454    -0.27120
N350        N  0.66434105  0.79685829  0.30339653    -0.34980
C351        C  0.68746706  0.79525509  0.32591046     0.01220
C352        C  0.67559965  0.79215932  0.35863338     0.07240
C353        C  0.64459937  0.79213926  0.35422614    -0.05860
H354        H  0.71112397  0.79604059  0.31895250     0.07910
H355        H  0.62762079  0.79056999  0.37415113     0.09110
Cu356      Cu  0.66681024  0.79968197  0.24982379     0.44170
Cu357      Cu  0.59613612  0.79772145  0.29833734     0.41990
Cu358      Cu  0.59446718  0.79406835  0.20619937     0.43880
N359        N  0.66214754  0.79663524  0.19640906    -0.34510
N360        N  0.63580777  0.79320262  0.18106172    -0.28770
C361        C  0.64025907  0.79016444  0.14708752    -0.04870
C362        C  0.67099947  0.79238033  0.13999726     0.07350
C363        C  0.68404717  0.79633970  0.17231311     0.01150
H364        H  0.62208215  0.78615787  0.12943213     0.08800
H365        H  0.70775733  0.79889488  0.17810760     0.07880
N366        N  0.55599715  0.79847615  0.23599717    -0.35960
N367        N  0.55661439  0.80015276  0.26997695    -0.28140
C368        C  0.52823147  0.80299961  0.28170741    -0.03380
C369        C  0.50884624  0.80301853  0.25369836     0.05230
C370        C  0.52720476  0.80013676  0.22514179     0.03320
H371        H  0.52216096  0.80449893  0.30864502     0.08430
H372        H  0.52018188  0.79911739  0.19843696     0.07260
N373        N  0.13960224  0.78321626  0.68277845    -0.27120
N374        N  0.16532323  0.78209789  0.70011137    -0.34980
C375        C  0.18854701  0.78385634  0.67791444     0.01220
C376        C  0.17693226  0.78660035  0.64508241     0.07240
C377        C  0.14581456  0.78599078  0.64909111    -0.05860
H378        H  0.21214767  0.78289952  0.68509245     0.07910
H379        H  0.12895611  0.78647808  0.62886983     0.09110
Cu380      Cu  0.16796544  0.77847103  0.75314942     0.44170
Cu381      Cu  0.09736149  0.77935728  0.70553290     0.41990
Cu382      Cu  0.09712248  0.77624869  0.79891568     0.43880
N383        N  0.16477921  0.77927615  0.80642303    -0.34510
N384        N  0.13872822  0.77932550  0.82309888    -0.28770
C385        C  0.14412819  0.78151768  0.85707819    -0.04870
C386        C  0.17508257  0.78285197  0.86199712     0.07350
C387        C  0.18751129  0.78111073  0.82939458     0.01150
H388        H  0.12681937  0.78174480  0.87675937     0.08800
H389        H  0.21126639  0.78154333  0.82281936     0.07880
N390        N  0.05847563  0.77391965  0.76891077    -0.35960
N391        N  0.05847217  0.77508084  0.73487733    -0.28140
C392        C  0.02972974  0.77410150  0.72351883    -0.03380
C393        C  0.01081563  0.77233017  0.75178199     0.05230
C394        C  0.02978930  0.77218753  0.78011094     0.03320
H395        H  0.02310398  0.77528497  0.69672502     0.08430
H396        H  0.02325391  0.77156796  0.80696333     0.07260
N397        N  0.84975400  0.78012788  0.68105742    -0.27120
N398        N  0.82359542  0.77685905  0.69668500    -0.34980
C399        C  0.80142490  0.77717806  0.67286422     0.01220
C400        C  0.81413327  0.78100747  0.64044235     0.07240
C401        C  0.84495817  0.78310176  0.64719393    -0.05860
H402        H  0.77777549  0.77474015  0.67893273     0.07910
H403        H  0.86297739  0.78699187  0.62942194     0.09110
Cu404      Cu  0.81974272  0.77401351  0.75010824     0.44170
Cu405      Cu  0.89120652  0.77923842  0.70575716     0.41990
Cu406      Cu  0.89079205  0.77659633  0.79826575     0.43880
N407        N  0.82260362  0.77659723  0.80372154    -0.34510
N408        N  0.84838178  0.77835317  0.82095967    -0.28770
C409        C  0.84235082  0.78089387  0.85477093    -0.04870
C410        C  0.81131729  0.78044116  0.85917398     0.07350
C411        C  0.79950785  0.77771094  0.82625790     0.01150
H412        H  0.85934147  0.78241812  0.87477558     0.08800
H413        H  0.77586534  0.77682891  0.81916652     0.07880
N414        N  0.92995145  0.77456125  0.76903795    -0.35960
N415        N  0.92999893  0.77560192  0.73501942    -0.28140
C416        C  0.95865089  0.77439622  0.72363246    -0.03380
C417        C  0.97756381  0.77258489  0.75187140     0.05230
C418        C  0.95863665  0.77268883  0.78025650     0.03320
H419        H  0.96520401  0.77525723  0.69680262     0.08430
H420        H  0.96521484  0.77195943  0.80710637     0.07260
N421        N  0.34295793  0.98986588  0.52840312    -0.27120
N422        N  0.35501869  0.00195232  0.55443760    -0.34980
C423        C  0.35684112  0.02509403  0.54601467     0.01220
C424        C  0.34587972  0.02758902  0.51291768     0.07240
C425        C  0.33744444  0.00495147  0.50240535    -0.05860
H426        H  0.36714211  0.03879150  0.56195014     0.07910
H427        H  0.32832472  0.99977731  0.47754732     0.09110
Cu428      Cu  0.37303974  0.98612406  0.59781515     0.44170
Cu429      Cu  0.33435914  0.95344080  0.52942940     0.41990
Cu430      Cu  0.36347840  0.92285815  0.60412149     0.43880
N431        N  0.39575584  0.96549699  0.63333190    -0.34510
N432        N  0.39280255  0.94213008  0.63510177    -0.28770
C433        C  0.41180012  0.93382226  0.65922163    -0.04870
C434        C  0.42734530  0.95295001  0.67331804     0.07350
C435        C  0.41663367  0.97274569  0.65637585     0.01150
H436        H  0.41417503  0.91525720  0.66585093     0.08800
H437        H  0.42385012  0.99101428  0.66005798     0.07880
N438        N  0.33360937  0.90766421  0.56933589    -0.35960
N439        N  0.32384153  0.91830194  0.54125591    -0.28140
C440        C  0.30575519  0.90313632  0.52372797    -0.03380
C441        C  0.30348573  0.88196845  0.54202096     0.05230
C442        C  0.32170060  0.88568452  0.57074430     0.03320
H443        H  0.29583047  0.90726335  0.49906519     0.08430
H444        H  0.32616839  0.87333797  0.59136103     0.07260
C445        C  0.25185146  0.79235695  0.49596798     0.00730
C446        C  0.23312544  0.77620829  0.51181300     0.00730
N447        N  0.14263594  0.58315673  0.46741794    -0.27120
N448        N  0.12721182  0.57111285  0.44378796    -0.34980
C449        C  0.12331166  0.54859030  0.45452080     0.01220
C450        C  0.13653657  0.54657972  0.48662999     0.07240
C451        C  0.14839290  0.56879277  0.49419682    -0.05860
H452        H  0.11092371  0.53495522  0.44052436     0.07910
H453        H  0.16060689  0.57405406  0.51722903     0.09110
Cu454      Cu  0.10977471  0.58674267  0.39988029     0.44170
Cu455      Cu  0.15620240  0.61820905  0.46109156     0.41990
Cu456      Cu  0.12642803  0.64947705  0.38702819     0.43880
N457        N  0.08934808  0.60750401  0.36266826    -0.34510
N458        N  0.09464452  0.63049409  0.35853535    -0.28770
C459        C  0.07617543  0.63878645  0.33381486    -0.04870
C460        C  0.05862686  0.62004338  0.32178272     0.07350
C461        C  0.06758978  0.60051622  0.34055583     0.01150
H462        H  0.07554207  0.65707968  0.32534492     0.08800
H463        H  0.05849738  0.58263189  0.33884211     0.07880
N464        N  0.15885381  0.66363407  0.42005048    -0.35960
N465        N  0.16958271  0.65220752  0.44707929    -0.28140
C466        C  0.18842667  0.66675738  0.46457089    -0.03380
C467        C  0.18988224  0.68824622  0.44757482     0.05230
C468        C  0.17056495  0.68578275  0.41972919     0.03320
H469        H  0.19875532  0.66254257  0.48906894     0.08430
H470        H  0.16399314  0.69953897  0.40189044     0.07260
N471        N  0.14779070  0.58282226  0.03104878    -0.27120
N472        N  0.13178440  0.57107581  0.05425454    -0.34980
C473        C  0.12833456  0.54836849  0.04378626     0.01220
C474        C  0.14237572  0.54581994  0.01226322     0.07240
C475        C  0.15427624  0.56797952  0.00472897    -0.05860
H476        H  0.11525543  0.53504180  0.05728760     0.07910
H477        H  0.16663668  0.57296544  0.98181119     0.09110
Cu478      Cu  0.11148854  0.58686467  0.09659204     0.44170
Cu479      Cu  0.16014671  0.61845860  0.03643525     0.41990
Cu480      Cu  0.12039479  0.65007917  0.10419535     0.43880
N481        N  0.08787296  0.60735814  0.13182772    -0.34510
N482        N  0.09058417  0.63074196  0.13400733    -0.28770
C483        C  0.07156954  0.63895002  0.15827647    -0.04870
C484        C  0.05623619  0.61974308  0.17202065     0.07350
C485        C  0.06709240  0.59999720  0.15471256     0.01150
H486        H  0.06920394  0.65748590  0.16543051     0.08800
H487        H  0.06020634  0.58167044  0.15822051     0.07880
N488        N  0.15364525  0.66522594  0.07399342    -0.35960
N489        N  0.16881638  0.65379783  0.04972022    -0.28140
C490        C  0.18839789  0.66908914  0.03493308    -0.03380
C491        C  0.18519739  0.69112768  0.05067655     0.05230
C492        C  0.16283879  0.68801312  0.07507941     0.03320
H493        H  0.20265020  0.66482758  0.01313075     0.08430
H494        H  0.15326307  0.70152663  0.09171582     0.07260
N495        N  0.34474819  0.98814034  0.97090132    -0.27120
N496        N  0.35629382  0.00050418  0.94512317    -0.34980
C497        C  0.35792395  0.02359858  0.95432243     0.01220
C498        C  0.34739599  0.02579831  0.98767276     0.07240
C499        C  0.33941683  0.00300358  0.99752780    -0.05860
H500        H  0.36757181  0.03752468  0.93858088     0.07910
H501        H  0.33046217  0.99761349  0.02223718     0.09110
Cu502      Cu  0.37331350  0.98508128  0.90061064     0.44170
Cu503      Cu  0.33603958  0.95172346  0.96810700     0.41990
Cu504      Cu  0.36209617  0.92197902  0.89046727     0.43880
N505        N  0.39491188  0.96480180  0.86338939    -0.34510
N506        N  0.39130513  0.94153558  0.86013832    -0.28770
C507        C  0.41005073  0.93340772  0.83552210    -0.04870
C508        C  0.42611229  0.95254133  0.82264591     0.07350
C509        C  0.41594369  0.97215794  0.84080308     0.01150
H510        H  0.41207903  0.91492874  0.82792118     0.08800
H511        H  0.42381088  0.99033791  0.83844162     0.07880
N512        N  0.33385899  0.90627259  0.92617780    -0.35960
N513        N  0.32517866  0.91668889  0.95509985    -0.28140
C514        C  0.30781265  0.90135564  0.97285782    -0.03380
C515        C  0.30539315  0.88019945  0.95426170     0.05230
C516        C  0.32204090  0.88421701  0.92457134     0.03320
H517        H  0.29787231  0.90531499  0.99769034     0.08430
H518        H  0.32509422  0.87231399  0.90290290     0.07260
C519        C  0.24908605  0.79642124  0.01160237     0.00730
C520        C  0.23011489  0.78010068  0.99673521     0.00730
C521        C  0.73560008  0.79586336  0.00895502     0.00730
C522        C  0.75435234  0.77978845  0.99336400     0.00730
N523        N  0.64424171  0.98889009  0.96952913    -0.27120
N524        N  0.62849410  0.00077663  0.94641950    -0.34980
C525        C  0.62487499  0.02328831  0.95759474     0.01220
C526        C  0.63857036  0.02544867  0.98949404     0.07240
C527        C  0.65044632  0.00333109  0.99645141    -0.05860
H528        H  0.61206668  0.03673758  0.94423716     0.07910
H529        H  0.66266160  0.99810932  0.01934204     0.09110
Cu530      Cu  0.60937117  0.98473183  0.90328046     0.44170
Cu531      Cu  0.65631966  0.95360393  0.96294976     0.41990
Cu532      Cu  0.61573836  0.92017656  0.89735215     0.43880
N533        N  0.58688150  0.96379544  0.86714832    -0.34510
N534        N  0.58848080  0.94031959  0.86554446    -0.28770
C535        C  0.57011264  0.93233101  0.84026651    -0.04870
C536        C  0.55637295  0.95172959  0.82532228     0.07350
C537        C  0.56749254  0.97135959  0.84294466     0.01150
H538        H  0.56690436  0.91378726  0.83344619     0.08800
H539        H  0.56152109  0.98977180  0.83892994     0.07880
N540        N  0.64894669  0.90571387  0.92834922    -0.35960
N541        N  0.66472855  0.91828288  0.95097335    -0.28140
C542        C  0.68540356  0.90417405  0.96558789    -0.03380
C543        C  0.68248671  0.88132111  0.95190773     0.05230
C544        C  0.65875310  0.88312400  0.92849389     0.03320
H545        H  0.70105363  0.91026429  0.98521156     0.08430
H546        H  0.64835793  0.86911651  0.91338440     0.07260
N547        N  0.83855594  0.58391962  0.02801908    -0.27120
N548        N  0.85338710  0.57191062  0.05182817    -0.34980
C549        C  0.85645411  0.54922842  0.04120669     0.01220
C550        C  0.84339094  0.54701320  0.00900587     0.07240
C551        C  0.83245330  0.56930770  0.00123828    -0.05860
H552        H  0.86856197  0.53566731  0.05516203     0.07910
H553        H  0.82097995  0.57454536  0.97786034     0.09110
Cu554      Cu  0.87246241  0.58737162  0.09549052     0.44170
Cu555      Cu  0.82718810  0.61957686  0.03306895     0.41990
Cu556      Cu  0.86371227  0.65058698  0.10412783     0.43880
N557        N  0.89490467  0.60770442  0.13241688    -0.34510
N558        N  0.89223878  0.63105158  0.13500596    -0.28770
C559        C  0.91085694  0.63918429  0.15993388    -0.04870
C560        C  0.92587391  0.61997667  0.17373410     0.07350
C561        C  0.91523273  0.60030444  0.15574064     0.01150
H562        H  0.91343797  0.65770538  0.16720676     0.08800
H563        H  0.92225367  0.58203515  0.15880119     0.07880
N564        N  0.83280568  0.66613297  0.07144537    -0.35960
N565        N  0.81898943  0.65491344  0.04576755    -0.28140
C566        C  0.80077919  0.67034000  0.02949896    -0.03380
C567        C  0.80364107  0.69230438  0.04555217     0.05230
C568        C  0.82401822  0.68894141  0.07207303     0.03320
H569        H  0.78748812  0.66614851  0.00679324     0.08430
H570        H  0.83235149  0.70221144  0.09011314     0.07260
O571        O  0.02529471  0.64034629  0.28391685    -0.72780
O572        O  0.95938918  0.64017752  0.21221411    -0.73760
O573        O  0.96095560  0.64061560  0.28555456    -0.62380
O574        O  0.02368546  0.64001931  0.21081356    -0.70790
O575        O  0.02307564  0.60049953  0.21096930    -0.70340
O576        O  0.96038381  0.60109625  0.28524359    -0.61600
O577        O  0.95926217  0.60066156  0.21208225    -0.74100
O578        O  0.02410473  0.60083471  0.28400876    -0.72880
Cu579      Cu  0.99231738  0.64171664  0.24811490     1.04560
Cu580      Cu  0.99166545  0.59942784  0.24806926     1.04330
C581        C  0.03494641  0.62049932  0.29528996     0.93420
C582        C  0.94918861  0.62033109  0.20068137     0.92560
C583        C  0.95099912  0.62089593  0.29732842     0.84700
C584        C  0.03325801  0.62012900  0.19919672     0.90980
N585        N  0.84066455  0.58375159  0.46885190    -0.27120
N586        N  0.85780560  0.57207883  0.44664560    -0.34980
C587        C  0.86186405  0.54976139  0.45799911     0.01220
C588        C  0.84683303  0.54747271  0.48899049     0.07240
C589        C  0.83380226  0.56933102  0.49529518    -0.05860
H590        H  0.87568479  0.53651997  0.44533607     0.07910
H591        H  0.82049008  0.57442747  0.51749509     0.09110
Cu592      Cu  0.87751945  0.58808407  0.40420121     0.44170
Cu593      Cu  0.82804897  0.61884654  0.46199033     0.41990
Cu594      Cu  0.86961625  0.65241929  0.39796316     0.43880
N595        N  0.89923546  0.60887894  0.36778254    -0.34510
N596        N  0.89708049  0.63230404  0.36607075    -0.28770
C597        C  0.91490663  0.64023736  0.34047666    -0.04870
C598        C  0.92883926  0.62085039  0.32540282     0.07350
C599        C  0.91841992  0.60128581  0.34329895     0.01150
H600        H  0.91756947  0.65873501  0.33348033     0.08800
H601        H  0.92471248  0.58290916  0.33925490     0.07880
N602        N  0.83611310  0.66684064  0.42873536    -0.35960
N603        N  0.81998390  0.65423087  0.45070044    -0.28140
C604        C  0.79927240  0.66837070  0.46538829    -0.03380
C605        C  0.80252930  0.69126981  0.45245564     0.05230
C606        C  0.82647705  0.68947760  0.42938496     0.03320
H607        H  0.78336574  0.66227796  0.48457267     0.08430
H608        H  0.83712541  0.70352737  0.41488821     0.07260
N609        N  0.64648010  0.98876600  0.53049377    -0.27120
N610        N  0.63081743  0.00063767  0.55392897    -0.34980
C611        C  0.62739841  0.02321818  0.54344167     0.01220
C612        C  0.64115660  0.02550020  0.51172377     0.07240
C613        C  0.65282344  0.00335586  0.50407717    -0.05860
H614        H  0.61466908  0.03665001  0.55715332     0.07910
H615        H  0.66498262  0.99821263  0.48104883     0.09110
Cu616      Cu  0.61139063  0.98507659  0.59688978     0.44170
Cu617      Cu  0.65875799  0.95337227  0.53566496     0.41990
Cu618      Cu  0.62110679  0.92200891  0.60497657     0.43880
N619        N  0.58888202  0.96466900  0.63312809    -0.34510
N620        N  0.59181139  0.94135423  0.63548160    -0.28770
C621        C  0.57318293  0.93320189  0.66017268    -0.04870
C622        C  0.55791103  0.95237664  0.67404976     0.07350
C623        C  0.56839346  0.97203361  0.65635432     0.01150
H624        H  0.57088727  0.91471044  0.66735781     0.08800
H625        H  0.56124649  0.99028104  0.65963575     0.07880
N626        N  0.65358480  0.90699262  0.57355176    -0.35960
N627        N  0.66789882  0.91836630  0.54864566    -0.28140
C628        C  0.68706988  0.90321916  0.53302984    -0.03380
C629        C  0.68453651  0.88130870  0.54890216     0.05230
C630        C  0.66297552  0.88435194  0.57426430     0.03320
H631        H  0.70055045  0.90747580  0.51062258     0.08430
H632        H  0.65404409  0.87087126  0.59130693     0.07260
C633        C  0.72828658  0.79186898  0.49508486     0.00730
C634        C  0.74799407  0.77644035  0.51031799     0.00730
O635        O  0.46099297  0.97209151  0.71225168    -0.72780
O636        O  0.52428845  0.97146098  0.78599000    -0.73760
O637        O  0.52479589  0.97176413  0.71286884    -0.62380
O638        O  0.46046734  0.97185909  0.78520563    -0.70790
O639        O  0.45939018  0.93234330  0.78445269    -0.70340
O640        O  0.52456850  0.93224577  0.71226759    -0.61600
O641        O  0.52369639  0.93194242  0.78557021    -0.74100
O642        O  0.46022984  0.93257162  0.71138529    -0.72880
Cu643      Cu  0.49268661  0.97314000  0.74910006     1.04560
Cu644      Cu  0.49197615  0.93084884  0.74838798     1.04330
C645        C  0.45060820  0.95247989  0.70023641     0.93420
C646        C  0.53381129  0.95166568  0.79758539     0.92560
C647        C  0.53473890  0.95206690  0.70105395     0.84700
C648        C  0.44973312  0.95218930  0.79617357     0.90980
C649        C  0.71787694  0.81405136  0.51248633     0.00010
C650        C  0.73829423  0.83294847  0.51808553    -0.11860
C651        C  0.72804487  0.85513676  0.52993186     0.02250
C652        C  0.69704428  0.85838008  0.53707021    -0.00080
C653        C  0.67688982  0.83935694  0.53219676    -0.11800
C654        C  0.68683185  0.81755507  0.51934750     0.02130
H655        H  0.76202478  0.83058398  0.51206714     0.15110
H656        H  0.65300218  0.84178511  0.53737663     0.15110
C657        C  0.66444440  0.79914039  0.51358542     0.36760
C658        C  0.74967553  0.87419734  0.53477843     0.36670
N659        N  0.64598213  0.78471380  0.50945210    -0.43580
N660        N  0.76698465  0.88951982  0.53861697    -0.43580
C661        C  0.78603970  0.71299289  0.46431641     0.00010
C662        C  0.77093172  0.71211823  0.49616235    -0.11860
C663        C  0.75680505  0.73209368  0.51011838     0.02250
C664        C  0.75810528  0.75404950  0.49275189    -0.00080
C665        C  0.77241451  0.75498817  0.46050075    -0.11800
C666        C  0.78549476  0.73465544  0.44573228     0.02130
H667        H  0.77057108  0.69590906  0.51103381     0.15110
H668        H  0.77397767  0.77178347  0.44704084     0.15110
C669        C  0.79721648  0.73674442  0.41120498     0.36760
C670        C  0.74124353  0.72942371  0.54258962     0.36670
N671        N  0.80626776  0.73874313  0.38338601    -0.43580
N672        N  0.72881581  0.72687296  0.56854758    -0.43580
C673        C  0.79060193  0.71509459  0.03428201     0.00010
C674        C  0.75941715  0.71653912  0.02762672    -0.11860
C675        C  0.74655820  0.73779907  0.01597052     0.02250
C676        C  0.76516158  0.75791120  0.01065739    -0.00080
C677        C  0.79631407  0.75626521  0.01694408    -0.11800
C678        C  0.80908531  0.73528337  0.02898781     0.02130
H679        H  0.74517014  0.70099013  0.03128050     0.15110
H680        H  0.81085361  0.77144797  0.01183224     0.15110
C681        C  0.84149809  0.73460636  0.03354382     0.36760
C682        C  0.71470287  0.73818076  0.00790139     0.36670
N683        N  0.86748377  0.73413493  0.03708336    -0.43580
N684        N  0.68915868  0.73848079  0.00138205    -0.43580
C685        C  0.69901930  0.85959817  0.96339196     0.00010
C686        C  0.71419358  0.86046356  0.99527108    -0.11860
C687        C  0.72803638  0.84040614  0.00903943     0.02250
C688        C  0.72628590  0.81836693  0.99148824    -0.00080
C689        C  0.71215266  0.81748947  0.95907038    -0.11800
C690        C  0.69944824  0.83790056  0.94446094     0.02130
H691        H  0.71479315  0.87671763  0.01034435     0.15110
H692        H  0.71032870  0.80066916  0.94538656     0.15110
C693        C  0.68798585  0.83583689  0.90974124     0.36760
C694        C  0.74362610  0.84307126  0.04159316     0.36670
N695        N  0.67916812  0.83386115  0.88175429    -0.43580
N696        N  0.75606199  0.84563379  0.06763430    -0.43580
C697        C  0.28868406  0.85828459  0.96474086     0.00010
C698        C  0.26415177  0.86065119  0.98757017    -0.11860
C699        C  0.24973892  0.84067643  0.00146444     0.02250
C700        C  0.25927141  0.81773160  0.99200127    -0.00080
C701        C  0.28213510  0.81516944  0.96732458    -0.11800
C702        C  0.29733627  0.83507481  0.95420555     0.02130
H703        H  0.25658563  0.87817867  0.99535563     0.15110
H704        H  0.28965818  0.79744672  0.96032236     0.15110
C705        C  0.32331988  0.83069613  0.93267155     0.36760
C706        C  0.22554905  0.84412207  0.02589894     0.36670
N707        N  0.34420406  0.82682532  0.91561717    -0.43580
N708        N  0.20608000  0.84694753  0.04537414    -0.43580
C709        C  0.19789299  0.71414280  0.03935149     0.00010
C710        C  0.17771733  0.73264594  0.03272282    -0.11860
C711        C  0.18794866  0.75438988  0.01997741     0.02250
C712        C  0.21922381  0.75831306  0.01468655    -0.00080
C713        C  0.23965001  0.74012767  0.02280716    -0.11800
C714        C  0.22917133  0.71798697  0.03457498     0.02130
H715        H  0.15365774  0.72983808  0.03648698     0.15110
H716        H  0.26364255  0.74291630  0.01864203     0.15110
C717        C  0.25083480  0.69958172  0.04178170     0.36760
C718        C  0.16566309  0.77240807  0.01298727     0.36670
N719        N  0.26816786  0.68478661  0.04755582    -0.43580
N720        N  0.14748089  0.78667338  0.00779840    -0.43580
C721        C  0.22174183  0.75344629  0.49470082     0.00010
C722        C  0.24087606  0.73996774  0.47298796    -0.11860
C723        C  0.23042910  0.71947852  0.45575193     0.02250
C724        C  0.20122900  0.71074794  0.46236497    -0.00080
C725        C  0.18248100  0.72309310  0.48495710    -0.12040
C726        C  0.19200025  0.74427744  0.50069747     0.02130
H727        H  0.26428039  0.74491444  0.46970853     0.15110
H728        H  0.16000680  0.71612085  0.49017379     0.15110
C729        C  0.17003263  0.75551063  0.52283543     0.36760
C730        C  0.24977729  0.70794375  0.43089081     0.36670
N731        N  0.15169397  0.76353352  0.54064093    -0.43580
N732        N  0.26501567  0.69892332  0.41046673    -0.43580
C733        C  0.28736212  0.85939294  0.53255632     0.00010
C734        C  0.29773368  0.83791768  0.54678902    -0.11860
C735        C  0.28511695  0.81595375  0.53721229     0.02250
C736        C  0.26147511  0.81504624  0.51290555    -0.00080
C737        C  0.25007874  0.83636045  0.49978985    -0.11800
C738        C  0.26252633  0.85839561  0.50941237     0.02130
H739        H  0.31672883  0.83799376  0.56442101     0.15110
H740        H  0.23184982  0.83570728  0.48106916     0.15110
C741        C  0.24900604  0.87936750  0.49490759     0.36760
C742        C  0.29823558  0.79461444  0.55108737     0.36670
N743        N  0.23785406  0.89593397  0.48285757    -0.43580
N744        N  0.30920208  0.77770807  0.56230934    -0.43580
C745        C  0.79780017  0.78236208  0.60648945     0.00010
C746        C  0.76608818  0.78498453  0.60649128    -0.11860
C747        C  0.74909370  0.78401269  0.57589114     0.02250
C748        C  0.76389030  0.78182299  0.54379023    -0.00080
C749        C  0.79558596  0.78064110  0.54357562    -0.11800
C750        C  0.81244916  0.78001714  0.57409454     0.02130
H751        H  0.75406531  0.78679157  0.63063730     0.15110
H752        H  0.80722931  0.77852426  0.51913616     0.15110
C753        C  0.84417504  0.77473288  0.57045621     0.36760
C754        C  0.71664023  0.78276549  0.57899661     0.36670
N755        N  0.86945727  0.77019792  0.56658517    -0.43580
N756        N  0.69072358  0.78138808  0.58266191    -0.43580
C757        C  0.79466670  0.78160726  0.89230256     0.00010
C758        C  0.80273248  0.79902844  0.91689294    -0.11860
C759        C  0.78874228  0.79977605  0.94936676     0.02250
C760        C  0.76630425  0.78280857  0.95764921    -0.00080
C761        C  0.75798002  0.76566610  0.93284516    -0.11800
C762        C  0.77189489  0.76488753  0.90049710     0.02130
H763        H  0.82034674  0.81184766  0.91089689     0.15110
H764        H  0.74125152  0.75223760  0.93931364     0.15110
C765        C  0.76414027  0.74553810  0.87738910     0.36760
C766        C  0.79885867  0.81725863  0.97429839     0.36670
N767        N  0.75808520  0.72991102  0.85901539    -0.43580
N768        N  0.80697411  0.83129038  0.99427760    -0.43580
C769        C  0.21933566  0.78296800  0.96053984     0.00010
C770        C  0.19813285  0.80064945  0.95297726    -0.11860
C771        C  0.18374863  0.80119063  0.92081906     0.02250
C772        C  0.19136683  0.78431217  0.89521556    -0.00080
C773        C  0.21429729  0.76785579  0.90186431    -0.11800
C774        C  0.22809481  0.76691663  0.93430141     0.02130
H775        H  0.19179681  0.81335603  0.97279549     0.15110
H776        H  0.22062070  0.75509207  0.88209022     0.15110
C777        C  0.25116142  0.74931003  0.93999509     0.36760
C778        C  0.16136076  0.81925904  0.91469571     0.36670
N779        N  0.26969701  0.73518830  0.94431161    -0.43580
N780        N  0.14340590  0.83374503  0.90979686    -0.43580
C781        C  0.19400645  0.78640877  0.61232697     0.00010
C782        C  0.21568962  0.76863381  0.60711976    -0.11860
C783        C  0.22956659  0.76563441  0.57500863     0.02250
C784        C  0.22271580  0.78122083  0.54777327    -0.00080
C785        C  0.20274938  0.80016339  0.55379066    -0.11800
C786        C  0.18789740  0.80254704  0.58551019     0.02130
H787        H  0.22054966  0.75619115  0.62762124     0.15110
H788        H  0.19705875  0.81201152  0.53283964     0.15110
C789        C  0.16578930  0.82115265  0.58943303     0.36760
C790        C  0.24988880  0.74589230  0.57023382     0.36670
N791        N  0.14790802  0.83597369  0.59237294    -0.43580
N792        N  0.26616299  0.73004756  0.56644839    -0.43580
C793        C  0.69198937  0.79051632  0.39181657     0.00010
C794        C  0.68508514  0.77178982  0.41434751    -0.11860
C795        C  0.69804878  0.77078316  0.44736109     0.02250
C796        C  0.71775920  0.78914961  0.45856808    -0.00080
C797        C  0.72537222  0.80739344  0.43546565    -0.11800
C798        C  0.71283440  0.80818337  0.40237565     0.02130
H799        H  0.66913520  0.75810651  0.40628924     0.15110
H800        H  0.74052343  0.82156246  0.44377239     0.15110
C801        C  0.72000341  0.82827164  0.38079494     0.36760
C802        C  0.68963721  0.75136918  0.46958667     0.36670
N803        N  0.72566119  0.84442967  0.36358089    -0.43580
N804        N  0.68276929  0.73574048  0.48725355    -0.43580
C805        C  0.68695419  0.79101719  0.10582340     0.00010
C806        C  0.71864593  0.78814956  0.10533959    -0.11860
C807        C  0.73523140  0.78885178  0.07448100     0.02250
C808        C  0.72001779  0.79114112  0.04265371    -0.00080
C809        C  0.68837735  0.79287430  0.04292690    -0.11800
C810        C  0.67192922  0.79356990  0.07368974     0.02130
H811        H  0.73095291  0.78626002  0.12929164     0.15110
H812        H  0.67646559  0.79514009  0.01868903     0.15110
C813        C  0.64020624  0.79902436  0.07062975     0.36760
C814        C  0.76777574  0.78969035  0.07691996     0.36670
N815        N  0.61490349  0.80366036  0.06723700    -0.43580
N816        N  0.79382370  0.79072521  0.07962395    -0.43580
C817        C  0.29628320  0.79402018  0.10977160     0.00010
C818        C  0.26457318  0.79111976  0.10871568    -0.11860
C819        C  0.24843732  0.79154423  0.07749231     0.02250
C820        C  0.26414487  0.79314016  0.04591893    -0.00080
C821        C  0.29578936  0.79515693  0.04691835    -0.11800
C822        C  0.31168670  0.79678236  0.07797248     0.02130
H823        H  0.25192518  0.78936483  0.13243401     0.15110
H824        H  0.30831197  0.79684283  0.02307032     0.15110
C825        C  0.34311491  0.80362502  0.07546049     0.36760
C826        C  0.21590615  0.79236110  0.07928554     0.36670
N827        N  0.36812018  0.80950606  0.07253961    -0.43580
N828        N  0.18987202  0.79334657  0.08181930    -0.43580
C829        C  0.29620600  0.79247052  0.39729410     0.00010
C830        C  0.26458692  0.79557041  0.39916555    -0.11860
C831        C  0.24909618  0.79385534  0.43064908     0.02250
C832        C  0.26525398  0.78921932  0.46108933    -0.00080
C833        C  0.29640628  0.78505147  0.45913176    -0.11800
C834        C  0.31184850  0.78614132  0.42779843     0.02130
H835        H  0.25192550  0.80012635  0.37624668     0.15110
H836        H  0.30885573  0.78108060  0.48246900     0.15110
C837        C  0.34351525  0.78007766  0.42828991     0.36760
C838        C  0.21689060  0.79777826  0.43140374     0.36670
N839        N  0.36887214  0.77511713  0.42933023    -0.43580
N840        N  0.19103693  0.80081713  0.43212403    -0.43580
C841        C  0.71631322  0.25930520  0.48718101     0.00010
C842        C  0.73662985  0.24040471  0.48283648    -0.11860
C843        C  0.72636953  0.21798295  0.47154859     0.02250
C844        C  0.69547297  0.21450436  0.46367619    -0.00080
C845        C  0.67544085  0.23353981  0.46726578    -0.11800
C846        C  0.68537827  0.25558873  0.47958355     0.02130
H847        H  0.76026345  0.24296183  0.48944783     0.15110
H848        H  0.65162581  0.23094334  0.46153364     0.15110
C849        C  0.66310408  0.27401119  0.48415576     0.36760
C850        C  0.74788831  0.19892889  0.46806690     0.36670
N851        N  0.64476784  0.28845723  0.48733891    -0.43580
N852        N  0.76510517  0.18361046  0.46534854    -0.43580
C853        C  0.75708769  0.31952938  0.50632375     0.00010
C854        C  0.77079869  0.31883864  0.53896650    -0.11860
C855        C  0.78373540  0.33931498  0.55385323     0.02250
C856        C  0.78478924  0.36085356  0.53502893    -0.00080
C857        C  0.77038661  0.36148905  0.50272757    -0.11800
C858        C  0.75637612  0.34136414  0.48860196     0.02130
H859        H  0.77194371  0.30214080  0.55269680     0.15110
H860        H  0.77051779  0.37763361  0.48768788     0.15110
C861        C  0.74150831  0.34378756  0.45565042     0.36760
C862        C  0.79472693  0.33755066  0.58876063     0.36670
N863        N  0.72965635  0.34617762  0.42929767    -0.43580
N864        N  0.80320299  0.33585672  0.61687370    -0.43580
C865        C  0.19763518  0.35977462  0.53498855     0.00010
C866        C  0.22889993  0.35795852  0.52938056    -0.11860
C867        C  0.24151636  0.33673263  0.51684686     0.02250
C868        C  0.22263639  0.31686850  0.51010980    -0.00080
C869        C  0.19144708  0.31880082  0.51607298    -0.11800
C870        C  0.17882774  0.33999715  0.52795063     0.02130
H871        H  0.24338294  0.37324693  0.53433928     0.15110
H872        H  0.17661458  0.30391332  0.51025521     0.15110
C873        C  0.14626902  0.34154947  0.52992604     0.36760
C874        C  0.27347774  0.33625336  0.50951688     0.36670
N875        N  0.12017886  0.34288761  0.53109020    -0.43580
N876        N  0.29914302  0.33610013  0.50372520    -0.43580
C877        C  0.28769804  0.21480672  0.46157965     0.00010
C878        C  0.26774077  0.21386092  0.48978543    -0.11860
C879        C  0.25502415  0.23448680  0.50367072     0.02250
C880        C  0.26111316  0.25670175  0.48854625    -0.00080
C881        C  0.27861793  0.25759184  0.45854119    -0.11800
C882        C  0.29257606  0.23714107  0.44545169     0.02130
H883        H  0.26264904  0.19703098  0.50196195     0.15110
H884        H  0.28357234  0.27472360  0.44706447     0.15110
C885        C  0.31366165  0.24055295  0.41756661     0.36760
C886        C  0.23635784  0.23242152  0.53403524     0.36670
N887        N  0.33057590  0.24389042  0.39534177    -0.43580
N888        N  0.22143906  0.23069229  0.55838830    -0.43580
C889        C  0.71944608  0.25727540  0.00784880     0.00010
C890        C  0.71797455  0.23699422  0.98652545    -0.11860
C891        C  0.70287545  0.21635275  0.99651743     0.02250
C892        C  0.69101392  0.21451149  0.03021656    -0.00080
C893        C  0.69247707  0.23472737  0.05186192    -0.11800
C894        C  0.70538425  0.25622409  0.04053317     0.02130
H895        H  0.72748729  0.23748603  0.96087856     0.15110
H896        H  0.68262844  0.23407748  0.07739850     0.15110
C897        C  0.70127917  0.27711931  0.06174227     0.36760
C898        C  0.69745889  0.19863228  0.97005716     0.36670
N899        N  0.69738961  0.29367671  0.07902801    -0.43580
N900        N  0.69288435  0.18481976  0.94837479    -0.43580
C901        C  0.78980532  0.35777780  0.96275427     0.00010
C902        C  0.80821638  0.33767981  0.96577812    -0.11860
C903        C  0.79680999  0.31645581  0.97922908     0.02250
C904        C  0.76614781  0.31485823  0.98902921    -0.00080
C905        C  0.74739508  0.33469465  0.98483366    -0.11800
C906        C  0.75897133  0.35609344  0.97189888     0.02130
H907        H  0.83194196  0.33883226  0.95890946     0.15110
H908        H  0.72392398  0.33366424  0.99274890     0.15110
C909        C  0.73869063  0.37590292  0.96785797     0.36760
C910        C  0.81731739  0.29680822  0.98340436     0.36670
N911        N  0.72240488  0.39176726  0.96457545    -0.43580
N912        N  0.83409557  0.28125649  0.98659627    -0.43580
C913        C  0.19531681  0.35662807  0.96372693     0.00010
C914        C  0.22395179  0.35795011  0.97944120    -0.11860
C915        C  0.23808765  0.33751679  0.99202091     0.02250
C916        C  0.22339019  0.31526937  0.98923482    -0.00080
C917        C  0.19547327  0.31375474  0.97223787    -0.11800
C918        C  0.18130747  0.33408537  0.95958375     0.02130
H919        H  0.23516287  0.37506176  0.98234058     0.15110
H920        H  0.18412046  0.29669771  0.96991308     0.15110
C921        C  0.15145896  0.33127965  0.94492628     0.36760
C922        C  0.26723718  0.33997818  0.00844641     0.36670
N923        N  0.12751692  0.32883770  0.93327394    -0.43580
N924        N  0.29058768  0.34216808  0.02164196    -0.43580
C925        C  0.26359111  0.25628344  0.01122818     0.00010
C926        C  0.28365757  0.25786642  0.03910410    -0.11860
C927        C  0.29806301  0.23758850  0.05188867     0.02250
C928        C  0.29142204  0.21482742  0.03748821    -0.00080
C929        C  0.26947174  0.21330353  0.01128272    -0.11800
C930        C  0.25596037  0.23365315  0.99783859     0.02130
H931        H  0.28954880  0.27524425  0.04950617     0.15110
H932        H  0.26316341  0.19614456  0.00051684     0.15110
C933        C  0.23463193  0.23067562  0.96992184     0.36760
C934        C  0.32104166  0.24138523  0.07780006     0.36670
N935        N  0.21760602  0.22790593  0.94754324    -0.43580
N936        N  0.33945098  0.24492318  0.09848544    -0.43580
C937        C  0.76286297  0.29125963  0.45592064     0.00010
C938        C  0.79457942  0.29198928  0.45667597    -0.11860
C939        C  0.81179998  0.29211295  0.42643152     0.02250
C940        C  0.79737782  0.28997194  0.39378658    -0.00080
C941        C  0.76557205  0.28773389  0.39332626    -0.11800
C942        C  0.74832046  0.28901988  0.42363146     0.02130
H943        H  0.80601883  0.29404543  0.48131009     0.15110
H944        H  0.75368126  0.28597222  0.36904021     0.15110
C945        C  0.71593779  0.29052616  0.42001939     0.36760
C946        C  0.84377643  0.29647818  0.43065132     0.36670
N947        N  0.69010429  0.29211737  0.41593931    -0.43580
N948        N  0.86927092  0.30023366  0.43508351    -0.43580
C949        C  0.79473850  0.28984394  0.10833336     0.00010
C950        C  0.79719784  0.27025945  0.08581950    -0.11860
C951        C  0.78290341  0.27022227  0.05340427     0.02250
C952        C  0.76619712  0.29028095  0.04294997    -0.00080
C953        C  0.76381996  0.30974936  0.06575560    -0.11800
C954        C  0.77760512  0.30962123  0.09816848     0.02130
H955        H  0.81058805  0.25507770  0.09345963     0.15110
H956        H  0.75137730  0.32538448  0.05794199     0.15110
C957        C  0.77534768  0.33062992  0.11963585     0.36760
C958        C  0.78709767  0.25000819  0.03085032     0.36670
N959        N  0.77363296  0.34751073  0.13674678    -0.43580
N960        N  0.79052406  0.23374785  0.01285320    -0.43580
C961        C  0.22077988  0.29112924  0.45699678     0.00010
C962        C  0.23187461  0.30537404  0.43028153    -0.11860
C963        C  0.21832324  0.30495712  0.39766636     0.02250
C964        C  0.19276374  0.29029339  0.39155520    -0.00080
C965        C  0.18202561  0.27569678  0.41817226    -0.11800
C966        C  0.19595549  0.27583782  0.45063457     0.02130
H967        H  0.25072821  0.31735312  0.43527546     0.15110
H968        H  0.16248921  0.26433055  0.41368396     0.15110
C969        C  0.18346903  0.26101635  0.47736612     0.36760
C970        C  0.22991856  0.32092837  0.37179320     0.36670
N971        N  0.17315914  0.24922776  0.49873367    -0.43580
N972        N  0.23926418  0.33375698  0.35111373    -0.43580
C973        C  0.19301456  0.29103272  0.10795887     0.00010
C974        C  0.18092579  0.27745370  0.08065546    -0.11860
C975        C  0.19503070  0.27694483  0.04835388     0.02250
C976        C  0.22160933  0.29037968  0.04289799    -0.00080
C977        C  0.23421412  0.30333588  0.07042819    -0.11800
C978        C  0.22019731  0.30385458  0.10273053     0.02130
H979        H  0.16022230  0.26737840  0.08447779     0.15110
H980        H  0.25457717  0.31372887  0.06640794     0.15110
C981        C  0.23303548  0.31911763  0.12909339     0.36760
C982        C  0.18128110  0.26304884  0.02107816     0.36670
N983        N  0.24331921  0.33145252  0.15010815    -0.43580
N984        N  0.16995440  0.25190409  0.99938989    -0.43580
C985        C  0.68962881  0.28468936  0.60698846     0.00010
C986        C  0.68296492  0.30294587  0.58368690    -0.11860
C987        C  0.69606528  0.30338154  0.55074273     0.02250
C988        C  0.71562056  0.28488525  0.54040405    -0.00080
C989        C  0.72281469  0.26702257  0.56419393    -0.11800
C990        C  0.71019037  0.26683186  0.59722284     0.02130
H991        H  0.66724817  0.31677656  0.59116856     0.15110
H992        H  0.73784214  0.25275670  0.55656274     0.15110
C993        C  0.71715215  0.24724117  0.61972160     0.36760
C994        C  0.68811547  0.32242752  0.52777012     0.36670
N995        N  0.72266648  0.23147628  0.63765393    -0.43580
N996        N  0.68164127  0.33777025  0.50949836    -0.43580
C997        C  0.69038169  0.28793969  0.89281064     0.00010
C998        C  0.72031112  0.27973746  0.89500047    -0.11860
C999        C  0.73532338  0.27850913  0.92678456     0.02250
C1000       C  0.72021106  0.28529315  0.95728785    -0.00080
C1001       C  0.69114576  0.29490916  0.95495882    -0.11800
C1002       C  0.67639691  0.29673122  0.92311444     0.02130
H1003       H  0.73158659  0.27312840  0.87210147     0.15110
H1004       H  0.67969043  0.30055219  0.97831140     0.15110
C1005       C  0.64728587  0.30818819  0.92243551     0.36760
C1006       C  0.76515450  0.26825561  0.92771449     0.36670
N1007       N  0.62403915  0.31753810  0.92207508    -0.43580
N1008       N  0.78888921  0.25970829  0.92816254    -0.43580
C1009       C  0.29514763  0.28379947  0.60752327     0.00010
C1010       C  0.31262470  0.28194973  0.57732981    -0.11860
C1011       C  0.29952213  0.28199736  0.54460715     0.02250
C1012       C  0.26781815  0.28335796  0.54091289    -0.00080
C1013       C  0.25014273  0.28614532  0.57061200    -0.11800
C1014       C  0.26335258  0.28677725  0.60359192     0.02130
H1015       H  0.33689693  0.28019402  0.57872732     0.15110
H1016       H  0.22576442  0.28720044  0.56810522     0.15110
C1017       C  0.24320231  0.29085306  0.63215593     0.36760
C1018       C  0.31960982  0.28111257  0.51529455     0.36670
N1019       N  0.22637988  0.29429586  0.65445250    -0.43580
N1020       N  0.33618213  0.28059959  0.49223578    -0.43580
C1021       C  0.26781280  0.28273150  0.95894231     0.00010
C1022       C  0.25018827  0.27904842  0.92936531    -0.11860
C1023       C  0.26345446  0.27800265  0.89661035     0.02250
C1024       C  0.29508394  0.28172138  0.89287400    -0.00080
C1025       C  0.31217159  0.28717902  0.92254975    -0.11800
C1026       C  0.29898138  0.28742397  0.95528033     0.02130
H1027       H  0.22619455  0.27549909  0.93209369     0.15110
H1028       H  0.33616485  0.29085513  0.92045275     0.15110
C1029       C  0.31813032  0.29231925  0.98468437     0.36760
C1030       C  0.24405474  0.27126161  0.86822251     0.36670
N1031       N  0.33376357  0.29628383  0.00800490    -0.43580
N1032       N  0.22808178  0.26574597  0.84585301    -0.43580
loop_ 
_geom_bond_atom_site_label_1 
_geom_bond_atom_site_label_2 
_geom_bond_distance 
_geom_bond_site_symmetry_2 
_ccdc_geom_bond_type 
N1            N2   1.320       .  A
N1            C5   1.344       .  A
N1           Cu9   2.078       .  S
N2            C3   1.343       .  A
N2           Cu8   2.066       .  S
C3            C4   1.388       .  A
C3            H6   1.078       .  S
C4            C5   1.391       .  A
C4         C1024   1.494       .  S
C5            H7   1.081       .  S
Cu8          N11   2.065       .  S
Cu9          N19   2.078       .  S
Cu10         N12   2.075       .  S
Cu10         N18   2.074       .  S
N11          N12   1.317       .  A
N11          C15   1.344       .  A
N12          C13   1.341       .  A
C13          C14   1.397       .  A
C13          H16   1.080       .  S
C14          C15   1.394       .  A
C14        C1009   1.506       .  S
C15          H17   1.075       .  S
N18          N19   1.323       .  A
N18          C22   1.345       .  A
N19          C20   1.346       .  A
C20          C21   1.384       .  A
C20          H23   1.082       .  S
C21          C22   1.383       .  A
C21          C45   1.472       .  S
C22          H24   1.082       .  S
N25          N26   1.321       .  A
N25          C29   1.344       .  A
N25         Cu33   2.074       .  S
N26          C27   1.347       .  A
N26         Cu32   2.083       .  S
C27          C28   1.389       .  A
C27          H30   1.081       .  S
C28          C29   1.387       .  A
C28         C997   1.491       .  S
C29          H31   1.081       .  S
Cu32         N35   2.083       .  S
Cu33         N43   2.073       .  S
Cu34         N36   2.075       .  S
Cu34         N42   2.074       .  S
N35          N36   1.323       .  A
N35          C39   1.347       .  A
N36          C37   1.345       .  A
C37          C38   1.382       .  A
C37          H40   1.082       .  S
C38          C39   1.385       .  A
C38         C985   1.479       .  S
C39          H41   1.081       .  S
N42          N43   1.322       .  A
N42          C46   1.345       .  A
N43          C44   1.346       .  A
C44          C45   1.383       .  A
C44          H47   1.082       .  S
C45          C46   1.383       .  A
C46          H48   1.082       .  S
N49          N50   1.322       .  A
N49          C53   1.345       .  A
N49         Cu57   2.075       .  S
N50          C51   1.344       .  A
N50         Cu56   2.069       .  S
C51          C52   1.384       .  A
C51          H54   1.081       .  S
C52          C53   1.385       .  A
C52         C964   1.481       .  S
C53          H55   1.082       .  S
Cu56         N59   2.069       .  S
Cu57         N67   2.075       .  S
Cu58         N60   2.072       .  S
Cu58         N66   2.072       .  S
N59          N60   1.321       .  A
N59          C63   1.344       .  A
N60          C61   1.345       .  A
C61          C62   1.385       .  A
C61          H64   1.082       .  S
C62          C63   1.384       .  A
C62         C973   1.481       .  S
C63          H65   1.081       .  S
N66          N67   1.323       .  A
N66          C70   1.345       .  A
N67          C68   1.345       .  A
C68          C69   1.383       .  A
C68          H71   1.082       .  S
C69          C70   1.382       .  A
C69          C93   1.470   1_455  S
C70          H72   1.082       .  S
N73          N74   1.319       .  A
N73          C77   1.343       .  A
N73         Cu81   2.068       .  S
N74          C75   1.346       .  A
N74         Cu80   2.086       .  S
C75          C76   1.396       .  A
C75          H78   1.080       .  S
C76          C77   1.392       .  A
C76         C940   1.505       .  S
C77          H79   1.076       .  S
Cu80         N83   2.087       .  S
Cu81         N91   2.068       .  S
Cu82         N84   2.075       .  S
Cu82         N90   2.074       .  S
N83          N84   1.324       .  A
N83          C87   1.347       .  A
N84          C85   1.346       .  A
C85          C86   1.382       .  A
C85          H88   1.082       .  S
C86          C87   1.385       .  A
C86         C949   1.479       .  S
C87          H89   1.081       .  S
N90          N91   1.322       .  A
N90          C94   1.345       .  A
N91          C92   1.344       .  A
C92          C93   1.382       .  A
C92          H95   1.082       .  S
C93          C94   1.384       .  A
C94          H96   1.082       .  S
N97          N98   1.323       .  A
N97         C101   1.347   1_554  A
N97        Cu105   2.087       .  S
N98          C99   1.344       .  A
N98        Cu104   2.069       .  S
C99         C100   1.380       .  A
C99         H102   1.082       .  S
C100        C101   1.384   1_554  A
C100        C498   1.468   1_554  S
C101        H103   1.082       .  S
Cu104       N107   2.069       .  S
Cu105       N115   2.087       .  S
Cu106       N108   2.062       .  S
Cu106       N114   2.062       .  S
N107        N108   1.321       .  A
N107        C111   1.344       .  A
N108        C109   1.344       .  A
C109        C110   1.381       .  A
C109        H112   1.082       .  S
C110        C111   1.382       .  A
C110        C207   1.464       .  S
C111        H113   1.082       .  S
N114        N115   1.320       .  A
N114        C118   1.343       .  A
N115        C116   1.345       .  A
C116        C117   1.393       .  A
C116        H119   1.082       .  S
C117        C118   1.387       .  A
C117        C928   1.496       .  S
C118        H120   1.079       .  S
C121        C122   1.358   1_556  D
C121        C925   1.490   1_556  S
C121       C1021   1.489       .  S
C122        C916   1.487   1_554  S
C122        C976   1.487       .  S
N123        N124   1.323       .  A
N123        C127   1.346       .  A
N123       Cu131   2.079       .  S
N124        C125   1.345       .  A
N124       Cu130   2.072       .  S
C125        C126   1.380       .  A
C125        H128   1.082       .  S
C126        C127   1.382       .  A
C126        C474   1.465   1_556  S
C127        H129   1.082   1_556  S
Cu130       N133   2.072       .  S
Cu131       N141   2.080       .  S
Cu132       N134   2.065       .  S
Cu132       N140   2.065       .  S
N133        N134   1.322       .  A
N133        C137   1.344       .  A
N134        C135   1.344       .  A
C135        C136   1.382       .  A
C135        H138   1.082       .  S
C136        C137   1.383       .  A
C136        C323   1.466       .  S
C137        H139   1.082       .  S
N140        N141   1.321       .  A
N140        C144   1.343       .  A
N141        C142   1.346       .  A
C142        C143   1.387       .  A
C142        H145   1.082       .  S
C143        C144   1.384       .  A
C143        C913   1.484       .  S
C144        H146   1.081       .  S
C147        C148   1.369   1_556  D
C147        C889   1.501   1_556  S
C147       C1000   1.496       .  S
C148        C904   1.491   1_554  S
C148        C952   1.497       .  S
N149        N150   1.321       .  A
N149        C153   1.345       .  A
N149       Cu157   2.070       .  S
N150        C151   1.346       .  A
N150       Cu156   2.072       .  S
C151        C152   1.382       .  A
C151        H154   1.082       .  S
C152        C153   1.381       .  A
C152        C526   1.465   1_554  S
C153        H155   1.082   1_554  S
Cu156       N159   2.073       .  S
Cu157       N167   2.070       .  S
Cu158       N160   2.070       .  S
Cu158       N166   2.069       .  S
N159        N160   1.324       .  A
N159        C163   1.344       .  A
N160        C161   1.344       .  A
C161        C162   1.381       .  A
C161        H164   1.082       .  S
C162        C163   1.381       .  A
C162        C209   1.465       .  S
C163        H165   1.082       .  S
N166        N167   1.320       .  A
N166        C170   1.346       .  A
N167        C168   1.340       .  A
C168        C169   1.389       .  A
C168        H171   1.079       .  S
C169        C170   1.389       .  A
C169        C892   1.493       .  S
C170        H172   1.081       .  S
N173        N174   1.323       .  A
N173        C177   1.345       .  A
N173       Cu181   2.074       .  S
N174        C175   1.345       .  A
N174       Cu180   2.075       .  S
C175        C176   1.381       .  A
C175        H178   1.082       .  S
C176        C177   1.381       .  A
C176        C550   1.465   1_556  S
C177        H179   1.082   1_556  S
Cu180       N183   2.075       .  S
Cu181       N191   2.073       .  S
Cu182       N184   2.066       .  S
Cu182       N190   2.066       .  S
N183        N184   1.322       .  A
N183        C187   1.344       .  A
N184        C185   1.345       .  A
C185        C186   1.382       .  A
C185        H188   1.082       .  S
C186        C187   1.383       .  A
C186        C321   1.467       .  S
C187        H189   1.082       .  S
N190        N191   1.322       .  A
N190        C194   1.343       .  A
N191        C192   1.345       .  A
C192        C193   1.384       .  A
C192        H195   1.082       .  S
C193        C194   1.382       .  A
C193        C901   1.478       .  S
C194        H196   1.082       .  S
O197       Cu205   2.007       .  S
O197        C207   1.278       .  A
O198       Cu205   2.011       .  S
O198        C208   1.278       .  A
O199       Cu205   2.006       .  S
O199        C209   1.277       .  A
O200       Cu205   2.003       .  S
O200        C210   1.277       .  A
O201       Cu206   2.001       .  S
O201        C210   1.277       .  A
O202       Cu206   2.002       .  S
O202        C209   1.277       .  A
O203       Cu206   2.001       .  S
O203        C208   1.276       .  A
O204       Cu206   2.002       .  S
O204        C207   1.276       .  A
Cu205      Cu206   2.378       .  S
C208        C276   1.466       .  S
C210        C224   1.463       .  S
N211        N212   1.323       .  A
N211        C215   1.347       .  A
N211       Cu219   2.083       .  S
N212        C213   1.343       .  A
N212       Cu218   2.065       .  S
C213        C214   1.379       .  A
C213        H216   1.082       .  S
C214        C215   1.384       .  A
C214        C424   1.466       .  S
C215        H217   1.082       .  S
Cu218       N221   2.065       .  S
Cu219       N229   2.083       .  S
Cu220       N222   2.060       .  S
Cu220       N228   2.060       .  S
N221        N222   1.321       .  A
N221        C225   1.343       .  A
N222        C223   1.343       .  A
C223        C224   1.381       .  A
C223        H226   1.082       .  S
C224        C225   1.381       .  A
C225        H227   1.082       .  S
N228        N229   1.320       .  A
N228        C232   1.342       .  A
N229        C230   1.343       .  A
C230        C231   1.393       .  A
C230        H233   1.081       .  S
C231        C232   1.388       .  A
C231        C877   1.495       .  S
C232        H234   1.078       .  S
N235        N236   1.323       .  A
N235        C239   1.346       .  A
N235       Cu243   2.077       .  S
N236        C237   1.345       .  A
N236       Cu242   2.071       .  S
C237        C238   1.380       .  A
C237        H240   1.082       .  S
C238        C239   1.381       .  A
C238        C450   1.464       .  S
C239        H241   1.082       .  S
Cu242       N245   2.071       .  S
Cu243       N253   2.078       .  S
Cu244       N246   2.067       .  S
Cu244       N252   2.067       .  S
N245        N246   1.322       .  A
N245        C249   1.343       .  A
N246        C247   1.345       .  A
C247        C248   1.382       .  A
C247        H250   1.082       .  S
C248        C249   1.382       .  A
C248        C322   1.466       .  S
C249        H251   1.082       .  S
N252        N253   1.322       .  A
N252        C256   1.342       .  A
N253        C254   1.347       .  A
C254        C255   1.383       .  A
C254        H257   1.082       .  S
C255        C256   1.381       .  A
C255        C865   1.476       .  S
C256        H258   1.082       .  S
C259        C260   1.364       .  D
C259        C880   1.491       .  S
C259       C1012   1.498       .  S
C260        C868   1.490       .  S
C260        C961   1.489       .  S
C261        C262   1.369       .  D
C261        C841   1.488       .  S
C261        C988   1.497       .  S
C262        C853   1.497       .  S
C262        C937   1.503       .  S
N263        N264   1.323       .  A
N263        C267   1.346       .  A
N263       Cu271   2.076       .  S
N264        C265   1.345       .  A
N264       Cu270   2.073       .  S
C265        C266   1.380       .  A
C265        H268   1.082       .  S
C266        C267   1.381       .  A
C266        C612   1.464       .  S
C267        H269   1.082       .  S
Cu270       N273   2.073       .  S
Cu271       N281   2.076       .  S
Cu272       N274   2.062       .  S
Cu272       N280   2.063       .  S
N273        N274   1.321       .  A
N273        C277   1.344       .  A
N274        C275   1.344       .  A
C275        C276   1.381       .  A
C275        H278   1.082       .  S
C276        C277   1.383       .  A
C277        H279   1.082       .  S
N280        N281   1.322       .  A
N280        C284   1.341       .  A
N281        C282   1.347       .  A
C282        C283   1.385       .  A
C282        H285   1.082       .  S
C283        C284   1.381       .  A
C283        C844   1.476       .  S
C284        H286   1.082       .  S
N287        N288   1.322       .  A
N287        C291   1.345       .  A
N287       Cu295   2.072       .  S
N288        C289   1.346       .  A
N288       Cu294   2.073       .  S
C289        C290   1.381       .  A
C289        H292   1.082       .  S
C290        C291   1.381       .  A
C290        C588   1.464       .  S
C291        H293   1.082       .  S
Cu294       N297   2.074       .  S
Cu295       N305   2.072       .  S
Cu296       N298   2.068       .  S
Cu296       N304   2.067       .  S
N297        N298   1.323       .  A
N297        C301   1.344       .  A
N298        C299   1.345       .  A
C299        C300   1.382       .  A
C299        H302   1.082       .  S
C300        C301   1.382       .  A
C300        C324   1.466       .  S
C301        H303   1.082       .  S
N304        N305   1.319       .  A
N304        C308   1.344       .  A
N305        C306   1.342       .  A
C306        C307   1.391       .  A
C306        H309   1.081       .  S
C307        C308   1.390       .  A
C307        C856   1.494       .  S
C308        H310   1.079       .  S
O311       Cu319   2.012       .  S
O311        C321   1.278       .  A
O312       Cu319   2.011   1_455  S
O312        C322   1.278       .  A
O313       Cu319   2.009   1_455  S
O313        C323   1.278       .  A
O314       Cu319   2.011       .  S
O314        C324   1.278       .  A
O315       Cu320   2.001       .  S
O315        C324   1.277       .  A
O316       Cu320   2.003   1_455  S
O316        C323   1.277       .  A
O317       Cu320   2.001   1_455  S
O317        C322   1.277       .  A
O318       Cu320   2.002       .  S
O318        C321   1.276       .  A
Cu319      Cu320   2.377       .  S
N325        N326   1.322       .  A
N325        C329   1.342       .  A
N325       Cu333   2.077       .  S
N326        C327   1.347       .  A
N326       Cu332   2.082       .  S
C327        C328   1.390       .  A
C327        H330   1.081       .  S
C328        C329   1.390       .  A
C328        C829   1.496       .  S
C329        H331   1.079       .  S
Cu332       N335   2.082       .  S
Cu333       N343   2.076       .  S
Cu334       N336   2.065       .  S
Cu334       N342   2.064       .  S
N335        N336   1.319       .  A
N335        C339   1.347       .  A
N336        C337   1.340       .  A
C337        C338   1.391       .  A
C337        H340   1.076       .  S
C338        C339   1.395       .  A
C338        C817   1.502       .  S
C339        H341   1.080       .  S
N342        N343   1.321       .  A
N342        C346   1.343       .  A
N343        C344   1.346       .  A
C344        C345   1.385       .  A
C344        H347   1.082       .  S
C345        C346   1.382       .  A
C345        C369   1.471       .  S
C346        H348   1.082       .  S
N349        N350   1.323       .  A
N349        C353   1.344       .  A
N349       Cu357   2.070       .  S
N350        C351   1.348       .  A
N350       Cu356   2.089       .  S
C351        C352   1.386       .  A
C351        H354   1.081       .  S
C352        C353   1.381       .  A
C352        C793   1.480       .  S
C353        H355   1.082       .  S
Cu356       N359   2.088       .  S
Cu357       N367   2.069       .  S
Cu358       N360   2.073       .  S
Cu358       N366   2.073       .  S
N359        N360   1.320       .  A
N359        C363   1.347       .  A
N360        C361   1.343       .  A
C361        C362   1.392       .  A
C361        H364   1.077       .  S
C362        C363   1.395       .  A
C362        C805   1.504       .  S
C363        H365   1.080       .  S
N366        N367   1.321       .  A
N366        C370   1.344       .  A
N367        C368   1.345       .  A
C368        C369   1.383       .  A
C368        H371   1.082       .  S
C369        C370   1.384       .  A
C370        H372   1.082       .  S
N373        N374   1.322       .  A
N373        C377   1.346       .  A
N373       Cu381   2.077       .  S
N374        C375   1.345       .  A
N374       Cu380   2.072       .  S
C375        C376   1.383       .  A
C375        H378   1.081       .  S
C376        C377   1.385       .  A
C376        C781   1.479       .  S
C377        H379   1.082       .  S
Cu380       N383   2.072       .  S
Cu381       N391   2.077       .  S
Cu382       N384   2.069       .  S
Cu382       N390   2.069       .  S
N383        N384   1.322       .  A
N383        C387   1.345       .  A
N384        C385   1.344       .  A
C385        C386   1.383       .  A
C385        H388   1.082       .  S
C386        C387   1.383       .  A
C386        C772   1.477       .  S
C387        H389   1.081       .  S
N390        N391   1.322       .  A
N390        C394   1.344       .  A
N391        C392   1.345       .  A
C392        C393   1.384       .  A
C392        H395   1.082       .  S
C393        C394   1.382       .  A
C393        C417   1.470   1_455  S
C394        H396   1.082       .  S
N397        N398   1.319       .  A
N397        C401   1.342       .  A
N397       Cu405   2.068       .  S
N398        C399   1.346       .  A
N398       Cu404   2.087       .  S
C399        C400   1.396       .  A
C399        H402   1.080       .  S
C400        C401   1.391       .  A
C400        C745   1.504       .  S
C401        H403   1.077       .  S
Cu404       N407   2.088       .  S
Cu405       N415   2.067       .  S
Cu406       N408   2.075       .  S
Cu406       N414   2.074       .  S
N407        N408   1.323       .  A
N407        C411   1.347       .  A
N408        C409   1.346       .  A
C409        C410   1.383       .  A
C409        H412   1.082       .  S
C410        C411   1.386       .  A
C410        C757   1.483       .  S
C411        H413   1.081       .  S
N414        N415   1.322       .  A
N414        C418   1.345       .  A
N415        C416   1.344       .  A
C416        C417   1.382       .  A
C416        H419   1.082       .  S
C417        C418   1.384       .  A
C418        H420   1.082       .  S
N421        N422   1.323   1_565  A
N421        C425   1.345   1_565  A
N421       Cu429   2.081       .  S
N422        C423   1.345       .  A
N422       Cu428   2.070   1_545  S
C423        C424   1.380       .  A
C423        H426   1.082       .  S
C424        C425   1.382       .  A
C425        H427   1.082   1_545  S
Cu428       N431   2.070       .  S
Cu429       N439   2.081       .  S
Cu430       N432   2.064       .  S
Cu430       N438   2.064       .  S
N431        N432   1.321       .  A
N431        C435   1.344       .  A
N432        C433   1.345       .  A
C433        C434   1.382       .  A
C433        H436   1.082       .  S
C434        C435   1.382       .  A
C434        C645   1.465       .  S
C435        H437   1.082       .  S
N438        N439   1.320       .  A
N438        C442   1.341       .  A
N439        C440   1.346       .  A
C440        C441   1.393       .  A
C440        H443   1.079       .  S
C441        C442   1.388       .  A
C441        C733   1.495       .  S
C442        H444   1.081       .  S
C445        C446   1.374       .  D
C445        C736   1.490       .  S
C445        C832   1.488       .  S
C446        C721   1.520       .  S
C446        C784   1.495       .  S
N447        N448   1.322       .  A
N447        C451   1.345       .  A
N447       Cu455   2.072       .  S
N448        C449   1.346       .  A
N448       Cu454   2.072       .  S
C449        C450   1.381       .  A
C449        H452   1.082       .  S
C450        C451   1.381       .  A
C451        H453   1.082       .  S
Cu454       N457   2.072       .  S
Cu455       N465   2.073       .  S
Cu456       N458   2.073       .  S
Cu456       N464   2.073       .  S
N457        N458   1.323       .  A
N457        C461   1.343       .  A
N458        C459   1.346       .  A
C459        C460   1.383       .  A
C459        H462   1.082       .  S
C460        C461   1.381       .  A
C460        C581   1.467       .  S
C461        H463   1.082       .  S
N464        N465   1.322       .  A
N464        C468   1.345       .  A
N465        C466   1.344       .  A
C466        C467   1.381       .  A
C466        H469   1.082       .  S
C467        C468   1.382       .  A
C467        C724   1.470       .  S
C468        H470   1.082       .  S
N471        N472   1.323       .  A
N471        C475   1.347       .  A
N471       Cu479   2.082       .  S
N472        C473   1.345       .  A
N472       Cu478   2.070       .  S
C473        C474   1.379       .  A
C473        H476   1.082       .  S
C474        C475   1.382       .  A
C475        H477   1.082   1_554  S
Cu478       N481   2.070       .  S
Cu479       N489   2.082       .  S
Cu480       N482   2.064       .  S
Cu480       N488   2.064       .  S
N481        N482   1.321       .  A
N481        C485   1.344       .  A
N482        C483   1.344       .  A
C483        C484   1.382       .  A
C483        H486   1.082       .  S
C484        C485   1.382       .  A
C484        C584   1.465       .  S
C485        H487   1.082       .  S
N488        N489   1.322       .  A
N488        C492   1.342       .  A
N489        C490   1.348       .  A
C490        C491   1.386       .  A
C490        H493   1.082       .  S
C491        C492   1.381       .  A
C491        C709   1.477       .  S
C492        H494   1.082       .  S
N495        N496   1.323   1_565  A
N495        C499   1.346   1_565  A
N495       Cu503   2.083       .  S
N496        C497   1.345       .  A
N496       Cu502   2.072   1_545  S
C497        C498   1.381       .  A
C497        H500   1.082       .  S
C498        C499   1.383       .  A
C499        H501   1.082   1_546  S
Cu502       N505   2.072       .  S
Cu503       N513   2.083       .  S
Cu504       N506   2.065       .  S
Cu504       N512   2.065       .  S
N505        N506   1.322       .  A
N505        C509   1.344       .  A
N506        C507   1.345       .  A
C507        C508   1.382       .  A
C507        H510   1.082       .  S
C508        C509   1.382       .  A
C508        C648   1.466       .  S
C509        H511   1.082       .  S
N512        N513   1.321       .  A
N512        C516   1.343       .  A
N513        C514   1.345       .  A
C514        C515   1.390       .  A
C514        H517   1.082       .  S
C515        C516   1.387       .  A
C515        C697   1.491       .  S
C516        H518   1.080       .  S
C519        C520   1.364   1_554  D
C519        C700   1.491   1_554  S
C519        C820   1.501       .  S
C520        C712   1.491   1_556  S
C520        C769   1.492       .  S
C521        C522   1.369   1_554  D
C521        C688   1.499   1_554  S
C521        C808   1.503       .  S
C522        C676   1.486   1_556  S
C522        C760   1.494       .  S
N523        N524   1.322   1_565  A
N523        C527   1.345   1_565  A
N523       Cu531   2.072       .  S
N524        C525   1.345       .  A
N524       Cu530   2.072   1_545  S
C525        C526   1.381       .  A
C525        H528   1.082       .  S
C526        C527   1.381       .  A
C527        H529   1.082   1_546  S
Cu530       N533   2.073       .  S
Cu531       N541   2.072       .  S
Cu532       N534   2.071       .  S
Cu532       N540   2.070       .  S
N533        N534   1.323       .  A
N533        C537   1.344       .  A
N534        C535   1.345       .  A
C535        C536   1.382       .  A
C535        H538   1.082       .  S
C536        C537   1.382       .  A
C536        C646   1.466       .  S
C537        H539   1.082       .  S
N540        N541   1.319       .  A
N540        C544   1.344       .  A
N541        C542   1.342       .  A
C542        C543   1.392       .  A
C542        H545   1.081       .  S
C543        C544   1.391       .  A
C543        C685   1.497       .  S
C544        H546   1.079       .  S
N547        N548   1.323       .  A
N547        C551   1.346       .  A
N547       Cu555   2.077       .  S
N548        C549   1.345       .  A
N548       Cu554   2.074       .  S
C549        C550   1.380       .  A
C549        H552   1.082       .  S
C550        C551   1.381       .  A
C551        H553   1.082   1_554  S
Cu554       N557   2.074       .  S
Cu555       N565   2.077       .  S
Cu556       N558   2.065       .  S
Cu556       N564   2.065       .  S
N557        N558   1.322       .  A
N557        C561   1.344       .  A
N558        C559   1.345       .  A
C559        C560   1.382       .  A
C559        H562   1.082       .  S
C560        C561   1.383       .  A
C560        C582   1.467       .  S
C561        H563   1.082       .  S
N564        N565   1.322       .  A
N564        C568   1.342       .  A
N565        C566   1.347       .  A
C566        C567   1.384       .  A
C566        H569   1.082       .  S
C567        C568   1.381       .  A
C567        C673   1.477       .  S
C568        H570   1.082       .  S
O571       Cu579   2.014   1_455  S
O571        C581   1.278       .  A
O572       Cu579   2.014       .  S
O572        C582   1.278       .  A
O573       Cu579   2.010       .  S
O573        C583   1.278       .  A
O574       Cu579   2.008   1_455  S
O574        C584   1.277       .  A
O575       Cu580   2.002   1_455  S
O575        C584   1.277       .  A
O576       Cu580   2.002       .  S
O576        C583   1.277       .  A
O577       Cu580   2.001       .  S
O577        C582   1.276       .  A
O578       Cu580   2.000   1_455  S
O578        C581   1.276       .  A
Cu579      Cu580   2.377       .  S
C583        C598   1.466       .  S
N585        N586   1.322       .  A
N585        C589   1.346       .  A
N585       Cu593   2.072       .  S
N586        C587   1.345       .  A
N586       Cu592   2.072       .  S
C587        C588   1.381       .  A
C587        H590   1.082       .  S
C588        C589   1.381       .  A
C589        H591   1.082       .  S
Cu592       N595   2.073       .  S
Cu593       N603   2.073       .  S
Cu594       N596   2.070       .  S
Cu594       N602   2.070       .  S
N595        N596   1.323       .  A
N595        C599   1.344       .  A
N596        C597   1.345       .  A
C597        C598   1.382       .  A
C597        H600   1.082       .  S
C598        C599   1.382       .  A
C599        H601   1.082       .  S
N602        N603   1.319       .  A
N602        C606   1.345       .  A
N603        C604   1.341       .  A
C604        C605   1.391       .  A
C604        H607   1.081       .  S
C605        C606   1.391       .  A
C605        C661   1.496       .  S
C606        H608   1.079       .  S
N609        N610   1.323   1_565  A
N609        C613   1.346   1_565  A
N609       Cu617   2.077       .  S
N610        C611   1.345       .  A
N610       Cu616   2.072   1_545  S
C611        C612   1.380       .  A
C611        H614   1.082       .  S
C612        C613   1.381       .  A
C613        H615   1.082   1_545  S
Cu616       N619   2.072       .  S
Cu617       N627   2.077       .  S
Cu618       N620   2.065       .  S
Cu618       N626   2.066       .  S
N619        N620   1.322       .  A
N619        C623   1.344       .  A
N620        C621   1.345       .  A
C621        C622   1.382       .  A
C621        H624   1.082       .  S
C622        C623   1.383       .  A
C622        C647   1.466       .  S
C623        H625   1.082       .  S
N626        N627   1.322       .  A
N626        C630   1.342       .  A
N627        C628   1.347       .  A
C628        C629   1.385       .  A
C628        H631   1.082       .  S
C629        C630   1.381       .  A
C629        C652   1.476       .  S
C630        H632   1.082       .  S
C633        C634   1.370       .  D
C633        C649   1.490       .  S
C633        C796   1.497       .  S
C634        C664   1.498       .  S
C634        C748   1.504       .  S
O635       Cu643   2.001       .  S
O635        C645   1.276       .  A
O636       Cu643   2.002       .  S
O636        C646   1.277       .  A
O637       Cu643   2.001       .  S
O637        C647   1.276       .  A
O638       Cu643   2.000       .  S
O638        C648   1.276       .  A
O639       Cu644   2.011       .  S
O639        C648   1.278       .  A
O640       Cu644   2.013       .  S
O640        C647   1.278       .  A
O641       Cu644   2.011       .  S
O641        C646   1.278       .  A
O642       Cu644   2.009       .  S
O642        C645   1.278       .  A
Cu643      Cu644   2.377       .  S
C649        C650   1.405       .  A
C649        C654   1.413       .  A
C650        C651   1.404       .  A
C650        H655   1.084       .  S
C651        C652   1.411       .  A
C651        C658   1.443       .  S
C652        C653   1.399       .  A
C653        C654   1.394       .  A
C653        H656   1.085       .  S
C654        C657   1.444       .  S
C657        N659   1.157       .  T
C658        N660   1.157       .  T
C661        C662   1.406       .  A
C661        C666   1.420       .  A
C662        C663   1.395       .  A
C662        H667   1.082       .  S
C663        C664   1.411       .  A
C663        C670   1.445       .  S
C664        C665   1.404       .  A
C665        C666   1.403       .  A
C665        H668   1.084       .  S
C666        C669   1.442       .  S
C669        N671   1.158       .  T
C670        N672   1.157       .  T
C673        C674   1.405       .  A
C673        C678   1.411       .  A
C674        C675   1.404       .  A
C674        H679   1.084       .  S
C675        C676   1.410       .  A
C675        C682   1.443       .  S
C676        C677   1.402       .  A
C677        C678   1.394       .  A
C677        H680   1.085       .  S
C678        C681   1.444       .  S
C681        N683   1.157       .  T
C682        N684   1.157       .  T
C685        C686   1.407       .  A
C685        C690   1.420       .  A
C686        C687   1.395   1_556  A
C686        H691   1.082   1_556  S
C687        C688   1.411   1_554  A
C687        C694   1.444       .  S
C688        C689   1.404       .  A
C689        C690   1.403       .  A
C689        H692   1.084       .  S
C690        C693   1.442       .  S
C693        N695   1.158       .  T
C694        N696   1.157       .  T
C697        C698   1.408       .  A
C697        C702   1.420       .  A
C698        C699   1.399   1_556  A
C698        H703   1.084       .  S
C699        C700   1.406   1_554  A
C699        C706   1.443       .  S
C700        C701   1.401       .  A
C701        C702   1.401       .  A
C701        H704   1.085       .  S
C702        C705   1.443       .  S
C705        N707   1.158       .  T
C706        N708   1.157       .  T
C709        C710   1.399       .  A
C709        C714   1.411       .  A
C710        C711   1.395       .  A
C710        H715   1.085       .  S
C711        C712   1.414       .  A
C711        C718   1.444       .  S
C712        C713   1.405       .  A
C713        C714   1.405       .  A
C713        H716   1.084       .  S
C714        C717   1.443       .  S
C717        N719   1.157       .  T
C718        N720   1.157       .  T
C721        C722   1.414       .  A
C721        C726   1.429       .  A
C722        C723   1.403       .  A
C722        H727   1.078       .  S
C723        C724   1.403       .  A
C723        C730   1.443       .  S
C724        C725   1.392       .  A
C725        C726   1.397       .  A
C725        H728   1.086       .  S
C726        C729   1.443       .  S
C729        N731   1.158       .  T
C730        N732   1.157       .  T
C733        C734   1.410       .  A
C733        C738   1.418       .  A
C734        C735   1.399       .  A
C734        H739   1.082       .  S
C735        C736   1.407       .  A
C735        C742   1.443       .  S
C736        C737   1.401       .  A
C737        C738   1.400       .  A
C737        H740   1.084       .  S
C738        C741   1.442       .  S
C741        N743   1.158       .  T
C742        N744   1.157       .  T
C745        C746   1.411       .  A
C745        C750   1.420       .  A
C746        C747   1.405       .  A
C746        H751   1.082       .  S
C747        C748   1.413       .  A
C747        C754   1.441       .  S
C748        C749   1.403       .  A
C749        C750   1.399       .  A
C749        H752   1.086       .  S
C750        C753   1.442       .  S
C753        N755   1.158       .  T
C754        N756   1.157       .  T
C757        C758   1.406       .  A
C757        C762   1.411       .  A
C758        C759   1.405       .  A
C758        H763   1.084       .  S
C759        C760   1.411       .  A
C759        C766   1.443       .  S
C760        C761   1.404       .  A
C761        C762   1.399       .  A
C761        H764   1.084       .  S
C762        C765   1.444       .  S
C765        N767   1.157       .  T
C766        N768   1.157       .  T
C769        C770   1.403       .  A
C769        C774   1.412       .  A
C770        C771   1.400       .  A
C770        H775   1.084       .  S
C771        C772   1.412       .  A
C771        C778   1.443       .  S
C772        C773   1.402       .  A
C773        C774   1.399       .  A
C773        H776   1.085       .  S
C774        C777   1.443       .  S
C777        N779   1.157       .  T
C778        N780   1.157       .  T
C781        C782   1.403       .  A
C781        C786   1.412       .  A
C782        C783   1.399       .  A
C782        H787   1.085       .  S
C783        C784   1.411       .  A
C783        C790   1.443       .  S
C784        C785   1.406       .  A
C785        C786   1.402       .  A
C785        H788   1.085       .  S
C786        C789   1.443       .  S
C789        N791   1.157       .  T
C790        N792   1.157       .  T
C793        C794   1.405       .  A
C793        C798   1.409       .  A
C794        C795   1.404       .  A
C794        H799   1.084       .  S
C795        C796   1.413       .  A
C795        C802   1.443       .  S
C796        C797   1.406       .  A
C797        C798   1.399       .  A
C797        H800   1.084       .  S
C798        C801   1.444       .  S
C801        N803   1.157       .  T
C802        N804   1.157       .  T
C805        C806   1.411       .  A
C805        C810   1.420       .  A
C806        C807   1.405       .  A
C806        H811   1.082       .  S
C807        C808   1.412       .  A
C807        C814   1.442       .  S
C808        C809   1.403       .  A
C809        C810   1.399       .  A
C809        H812   1.086       .  S
C810        C813   1.442       .  S
C813        N815   1.158       .  T
C814        N816   1.157       .  T
C817        C818   1.411       .  A
C817        C822   1.419       .  A
C818        C819   1.405       .  A
C818        H823   1.082       .  S
C819        C820   1.412       .  A
C819        C826   1.441       .  S
C820        C821   1.403       .  A
C821        C822   1.396       .  A
C821        H824   1.083       .  S
C822        C825   1.443       .  S
C825        N827   1.158       .  T
C826        N828   1.157       .  T
C829        C830   1.412       .  A
C829        C834   1.418       .  A
C830        C831   1.405       .  A
C830        H835   1.083       .  S
C831        C832   1.406       .  A
C831        C838   1.442       .  S
C832        C833   1.401       .  A
C833        C834   1.397       .  A
C833        H836   1.084       .  S
C834        C837   1.443       .  S
C837        N839   1.158       .  T
C838        N840   1.157       .  T
C841        C842   1.405       .  A
C841        C846   1.413       .  A
C842        C843   1.404       .  A
C842        H847   1.084       .  S
C843        C844   1.411       .  A
C843        C850   1.443       .  S
C844        C845   1.400       .  A
C845        C846   1.394       .  A
C845        H848   1.085       .  S
C846        C849   1.444       .  S
C849        N851   1.157       .  T
C850        N852   1.157       .  T
C853        C854   1.404       .  A
C853        C858   1.411       .  A
C854        C855   1.403       .  A
C854        H859   1.084       .  S
C855        C856   1.419       .  A
C855        C862   1.442       .  S
C856        C857   1.406       .  A
C857        C858   1.395       .  A
C857        H860   1.082       .  S
C858        C861   1.444       .  S
C861        N863   1.157       .  T
C862        N864   1.158       .  T
C865        C866   1.404       .  A
C865        C870   1.409       .  A
C866        C867   1.404       .  A
C866        H871   1.084       .  S
C867        C868   1.413       .  A
C867        C874   1.442       .  S
C868        C869   1.403       .  A
C869        C870   1.395       .  A
C869        H872   1.082       .  S
C870        C873   1.445       .  S
C873        N875   1.157       .  T
C874        N876   1.157       .  T
C877        C878   1.408       .  A
C877        C882   1.422       .  A
C878        C879   1.397       .  A
C878        H883   1.083       .  S
C879        C880   1.408       .  A
C879        C886   1.444       .  S
C880        C881   1.400       .  A
C881        C882   1.401       .  A
C881        H884   1.085       .  S
C882        C885   1.442       .  S
C885        N887   1.158       .  T
C886        N888   1.157       .  T
C889        C890   1.405   1_554  A
C889        C894   1.414       .  A
C890        C891   1.393       .  A
C890        H895   1.081       .  S
C891        C892   1.414   1_556  A
C891        C898   1.444       .  S
C892        C893   1.409       .  A
C893        C894   1.406       .  A
C893        H896   1.084       .  S
C894        C897   1.442       .  S
C897        N899   1.157       .  T
C898        N900   1.158       .  T
C901        C902   1.402       .  A
C901        C906   1.412       .  A
C902        C903   1.397       .  A
C902        H907   1.084       .  S
C903        C904   1.411       .  A
C903        C910   1.443       .  S
C904        C905   1.404       .  A
C905        C906   1.401       .  A
C905        H908   1.084       .  S
C906        C909   1.443       .  S
C909        N911   1.157       .  T
C910        N912   1.157       .  T
C913        C914   1.406       .  A
C913        C918   1.415       .  A
C914        C915   1.401       .  A
C914        H919   1.084       .  S
C915        C916   1.409       .  A
C915        C922   1.442   1_556  S
C916        C917   1.400       .  A
C917        C918   1.398       .  A
C917        H920   1.083       .  S
C918        C921   1.443       .  S
C921        N923   1.157       .  T
C922        N924   1.157       .  T
C925        C926   1.400       .  A
C925        C930   1.410   1_554  A
C926        C927   1.402       .  A
C926        H931   1.084       .  S
C927        C928   1.421       .  A
C927        C934   1.442       .  S
C928        C929   1.406       .  A
C929        C930   1.398   1_554  A
C929        H932   1.083       .  S
C930        C933   1.443       .  S
C933        N935   1.157       .  T
C934        N936   1.158       .  T
C937        C938   1.403       .  A
C937        C942   1.412       .  A
C938        C939   1.400       .  A
C938        H943   1.086       .  S
C939        C940   1.421       .  A
C939        C946   1.442       .  S
C940        C941   1.411       .  A
C941        C942   1.404       .  A
C941        H944   1.082       .  S
C942        C945   1.441       .  S
C945        N947   1.157       .  T
C946        N948   1.158       .  T
C949        C950   1.405       .  A
C949        C954   1.407       .  A
C950        C951   1.407       .  A
C950        H955   1.084       .  S
C951        C952   1.413       .  A
C951        C958   1.442       .  S
C952        C953   1.407       .  A
C953        C954   1.397       .  A
C953        H956   1.085       .  S
C954        C957   1.444       .  S
C957        N959   1.157       .  T
C958        N960   1.157       .  T
C961        C962   1.401       .  A
C961        C966   1.410       .  A
C962        C963   1.399       .  A
C962        H967   1.085       .  S
C963        C964   1.413       .  A
C963        C970   1.444       .  S
C964        C965   1.405       .  A
C965        C966   1.401       .  A
C965        H968   1.084       .  S
C966        C969   1.443       .  S
C969        N971   1.157       .  T
C970        N972   1.157       .  T
C973        C974   1.404       .  A
C973        C978   1.413       .  A
C974        C975   1.401       .  A
C974        H979   1.084       .  S
C975        C976   1.410       .  A
C975        C982   1.442       .  S
C976        C977   1.402       .  A
C977        C978   1.399       .  A
C977        H980   1.082       .  S
C978        C981   1.444       .  S
C981        N983   1.157       .  T
C982        N984   1.157   1_554  T
C985        C986   1.405       .  A
C985        C990   1.409       .  A
C986        C987   1.404       .  A
C986        H991   1.084       .  S
C987        C988   1.413       .  A
C987        C994   1.443       .  S
C988        C989   1.406       .  A
C989        C990   1.398       .  A
C989        H992   1.084       .  S
C990        C993   1.444       .  S
C993        N995   1.157       .  T
C994        N996   1.157       .  T
C997        C998   1.407       .  A
C997       C1002   1.417       .  A
C998        C999   1.402       .  A
C998       H1003   1.084       .  S
C999       C1000   1.411       .  A
C999       C1006   1.443       .  S
C1000      C1001   1.400       .  A
C1001      C1002   1.401       .  A
C1001      H1004   1.085       .  S
C1002      C1005   1.443       .  S
C1005      N1007   1.157       .  T
C1006      N1008   1.157       .  T
C1009      C1010   1.408       .  A
C1009      C1014   1.425       .  A
C1010      C1011   1.395       .  A
C1010      H1015   1.080       .  S
C1011      C1012   1.411       .  A
C1011      C1018   1.445       .  S
C1012      C1013   1.402       .  A
C1013      C1014   1.406       .  A
C1013      H1016   1.084       .  S
C1014      C1017   1.441       .  S
C1017      N1019   1.158       .  T
C1018      N1020   1.157       .  T
C1021      C1022   1.400       .  A
C1021      C1026   1.409       .  A
C1022      C1023   1.401       .  A
C1022      H1027   1.084       .  S
C1023      C1024   1.420       .  A
C1023      C1030   1.442       .  S
C1024      C1025   1.407       .  A
C1025      C1026   1.398       .  A
C1025      H1028   1.083       .  S
C1026      C1029   1.444       .  S
C1029      N1031   1.157   1_556  T
C1030      N1032   1.158       .  T
