geometry optimzed in LAMMPS
_audit_creation_date              2020-11-30 
_audit_creation_method            'lammps2cif' 
_symmetry_space_group_name_H-M    'P1' 
_symmetry_Int_Tables_number       1 
_symmetry_cell_setting            triclinic 
loop_ 
_symmetry_equiv_pos_as_xyz 
  x,y,z 
_cell_length_a                    46.07253463 
_cell_length_b                    45.746708608242265 
_cell_length_c                    46.182589782892144 
_cell_angle_alpha                 89.34020708723871 
_cell_angle_beta                  91.67140591570177 
_cell_angle_gamma                 90.04243743839355 
loop_ 
_atom_site_label 
_atom_site_type_symbol 
_atom_site_fract_x 
_atom_site_fract_y 
_atom_site_fract_z 
_atom_site_charge 
N1          N  0.65057624  0.12324471  0.24325628    -0.00500
C2          C  0.63272707  0.10070991  0.23456818    -0.11300
C3          C  0.61077018  0.09440956  0.25508007    -0.06800
C4          C  0.61744350  0.11540999  0.27643204    -0.07500
C5          C  0.64059459  0.13309628  0.26805264    -0.11400
N6          N  0.41129597  0.11504251  0.26807282    -0.00500
C7          C  0.42699766  0.09135637  0.25925045    -0.11300
C8          C  0.45373560  0.08673714  0.27639088    -0.06800
C9          C  0.45192146  0.11089701  0.29634622    -0.07500
C10         C  0.42603301  0.12668430  0.29053607    -0.11400
C11         C  0.55100746  0.19326024  0.43251177     0.31100
C12         C  0.51200446  0.16617476  0.39503619     0.31100
C13         C  0.52219441  0.18240330  0.44536832    -0.05100
C14         C  0.54038750  0.21166577  0.40625961    -0.05900
C15         C  0.56160915  0.16504665  0.41836676    -0.05700
C16         C  0.50219832  0.16923994  0.42595782    -0.05100
C17         C  0.52016650  0.19829576  0.38800238    -0.05900
C18         C  0.54077793  0.15063449  0.40108360    -0.05700
C19         C  0.47701344  0.16540458  0.44001879    -0.31100
N20         N  0.48113245  0.17436803  0.46772873     0.15400
C21         C  0.50885505  0.18424653  0.47133022    -0.31100
H22         H  0.51772360  0.19456262  0.49061649     0.17300
C23         C  0.50877919  0.21993541  0.36995428    -0.30100
N24         N  0.52316007  0.24538426  0.37485763     0.14100
C25         C  0.54270084  0.24049247  0.39706615    -0.30100
C26         C  0.55423480  0.13050575  0.38506022    -0.30400
N27         N  0.58289232  0.13530251  0.38776818     0.14600
H28         H  0.54411226  0.11877236  0.36716027     0.17200
C29         C  0.58776113  0.15666383  0.40722079    -0.30400
H30         H  0.60774829  0.16909817  0.40831799     0.17200
H31         H  0.55758383  0.25657525  0.40592339     0.17200
H32         H  0.45633531  0.15973193  0.42987605     0.17300
H33         H  0.49099252  0.21739345  0.35435083     0.17200
N34         N  0.44071704  0.88580491  0.29732056    -0.00500
C35         C  0.46495388  0.90294975  0.30147964    -0.11300
C36         C  0.46675750  0.92619717  0.28030368    -0.06800
C37         C  0.44052891  0.92139757  0.26425779    -0.07500
C38         C  0.42491381  0.89761851  0.27549356    -0.11400
N39         N  0.64519315  0.93961532  0.22537066    -0.00500
C40         C  0.66433922  0.91686536  0.23044134    -0.11300
C41         C  0.65457049  0.89894149  0.25177072    -0.06800
C42         C  0.62966664  0.91278894  0.26221972    -0.07500
C43         C  0.62255623  0.93771237  0.24481585    -0.11400
C44         C  0.70857348  0.02905044  0.08071045     0.31100
C45         C  0.68381652  0.99288822  0.12039971     0.31100
C46         C  0.70077569  0.99781227  0.07034283    -0.05100
C47         C  0.72657770  0.02378022  0.10866631    -0.05900
C48         C  0.67941518  0.03968962  0.09227085    -0.05700
C49         C  0.68903827  0.97871989  0.09113686    -0.05100
C50         C  0.71453537  0.00470419  0.12815161    -0.05900
C51         C  0.66591951  0.01976930  0.11067727    -0.05700
C52         C  0.69662965  0.95094906  0.08291892    -0.31100
N53         N  0.70916838  0.95244710  0.05664457     0.15400
C54         C  0.71138146  0.98097616  0.04883101    -0.31100
H55         H  0.72263324  0.98908390  0.03014415     0.17300
C56         C  0.73439627  0.00136499  0.15093678    -0.30100
N57         N  0.75720753  0.01931715  0.14656587     0.14100
C58         C  0.75290172  0.03315046  0.12068788    -0.30100
C59         C  0.64569686  0.03440184  0.12577680    -0.30400
N60         N  0.64991019  0.06320182  0.12196793     0.14600
H61         H  0.63415882  0.02530188  0.14390758     0.17200
C62         C  0.67068481  0.06680861  0.10210923    -0.30400
H63         H  0.68260303  0.08702963  0.09956903     0.17200
H64         H  0.76762199  0.04897239  0.11155761     0.17200
H65         H  0.69597429  0.93159607  0.09656520     0.17300
H66         H  0.73223851  0.98724244  0.16966556     0.17200
C67         C  0.58390465  0.82517350  0.42226283     0.31100
C68         C  0.53916801  0.84901699  0.38969160     0.31100
C69         C  0.59012911  0.85522995  0.40835842    -0.05100
C70         C  0.57334995  0.80747446  0.39609562    -0.05900
C71         C  0.55548263  0.83155135  0.43844287    -0.05700
C72         C  0.56654409  0.86776687  0.39340394    -0.05100
C73         C  0.54957641  0.81852306  0.38093295    -0.05900
C74         C  0.53243127  0.84370644  0.42143691    -0.05700
C75         C  0.57620211  0.89082246  0.37747478    -0.31100
N76         N  0.60538493  0.88995051  0.37780343     0.15400
C77         C  0.61411764  0.86790877  0.39588085    -0.31100
H78         H  0.63554488  0.85827348  0.39539895     0.17300
C79         C  0.53937644  0.79665274  0.36287350    -0.30100
N80         N  0.55822964  0.77395351  0.36473001     0.14100
C81         C  0.57921684  0.78048482  0.38476709    -0.30100
C82         C  0.50738255  0.83672988  0.43503877    -0.30400
N83         N  0.51417153  0.82317232  0.46060221     0.14600
H84         H  0.48575621  0.83808289  0.42533442     0.17200
C85         C  0.54343422  0.81985904  0.46282855    -0.30400
H86         H  0.55484258  0.80731419  0.47956802     0.17200
H87         H  0.59671719  0.76591808  0.39144660     0.17200
H88         H  0.56329345  0.90269790  0.36126828     0.17300
H89         H  0.51965637  0.79720894  0.34955122     0.17200
C90         C  0.33609177  0.00197794  0.12463988     0.31100
C91         C  0.35723952  0.03763681  0.16776190     0.31100
C92         C  0.33684448  0.03524119  0.11785705    -0.05100
C93         C  0.31949353  0.00045992  0.15333181    -0.05900
C94         C  0.36757518  0.99614830  0.13524920    -0.05700
C95         C  0.34691695  0.05329156  0.14021001    -0.05100
C96         C  0.32967334  0.01964363  0.17469303    -0.05900
C97         C  0.37875821  0.01597001  0.15524939    -0.05700
C98         C  0.34567989  0.08147902  0.13034346    -0.31100
N99         N  0.33634553  0.08130306  0.10222848     0.15400
C100        C  0.33144646  0.05311339  0.09424719    -0.31100
H101        H  0.32526085  0.04592460  0.07272084     0.17300
C102        C  0.30560415  0.02670534  0.19052163    -0.30100
N103        N  0.28265069  0.00928317  0.18315750     0.14100
C104        C  0.29104383  0.99359889  0.15988520    -0.30100
C105        C  0.40326576  0.00427975  0.16790634    -0.30400
N106        N  0.40450185  0.97586690  0.16094422     0.14600
H107        H  0.41444229  0.01316414  0.18682192     0.17200
C108        C  0.38232042  0.97045278  0.14202934    -0.30400
H109        H  0.37388867  0.94866640  0.13829954     0.17200
H110        H  0.27705308  0.97933690  0.14728221     0.17200
H111        H  0.35107026  0.10078748  0.14269776     0.17300
H112        H  0.30476495  0.04521005  0.20476603     0.17200
N113        N  0.14012097  0.29301365  0.59807549    -0.00500
C114        C  0.15804110  0.28420396  0.62108561    -0.11300
C115        C  0.15007153  0.25679905  0.63060806    -0.06800
C116        C  0.12516523  0.24876502  0.61434150    -0.07500
C117        C  0.11860598  0.27148218  0.59365858    -0.11400
N118        N  0.14715523  0.29008840  0.40903324    -0.00500
C119        C  0.12444481  0.29838446  0.42681159    -0.11300
C120        C  0.11061672  0.27229577  0.43847326    -0.06800
C121        C  0.12576185  0.24942209  0.42500385    -0.07500
C122        C  0.14735345  0.26073608  0.40744139    -0.11400
C123        C  0.19700245  0.37594530  0.52064701     0.31100
C124        C  0.22415746  0.40928721  0.47981691     0.31100
C125        C  0.22085678  0.39630509  0.53256544    -0.05100
C126        C  0.21398313  0.35938349  0.49741439    -0.05900
C127        C  0.17775040  0.39741956  0.50350085    -0.05700
C128        C  0.23541978  0.41201671  0.51147890    -0.05100
C129        C  0.22724349  0.37626244  0.47586409    -0.05900
C130        C  0.19112060  0.41399062  0.48197632    -0.05700
C131        C  0.25915217  0.42409674  0.52487516    -0.31100
N132        N  0.25682293  0.42153290  0.55395361     0.15400
C133        C  0.23360676  0.40365497  0.55884057    -0.31100
H134        H  0.22523349  0.39758354  0.57958185     0.17300
C135        C  0.25157893  0.36090493  0.46782811    -0.30100
N136        N  0.25378728  0.33588313  0.48364838     0.14100
C137        C  0.23174424  0.33550146  0.50218436    -0.30100
C138        C  0.17023785  0.41700693  0.45998149    -0.30400
N139        N  0.14511146  0.40357209  0.46756147     0.14600
H140        H  0.17502540  0.42460678  0.43851369     0.17200
C141        C  0.14963870  0.39312703  0.49488112    -0.30400
H142        H  0.13585498  0.37732371  0.50539085     0.17200
H143        H  0.23047923  0.32053823  0.52045340     0.17200
H144        H  0.27705168  0.43415459  0.51398109     0.17300
H145        H  0.26776820  0.36895646  0.45326818     0.17200
N146        N  0.91025563  0.26079091  0.40905262    -0.00500
C147        C  0.92361279  0.26644809  0.43544211    -0.11300
C148        C  0.95217464  0.25208989  0.43759440    -0.06800
C149        C  0.95294128  0.23671349  0.40989258    -0.07500
C150        C  0.92738748  0.24360661  0.39353880    -0.11400
N151        N  0.92372502  0.28915322  0.62784970    -0.00500
C152        C  0.94409452  0.29762025  0.60741455    -0.11300
C153        C  0.95835842  0.27224348  0.59540504    -0.06800
C154        C  0.94475530  0.24891419  0.61026984    -0.07500
C155        C  0.92477116  0.25982308  0.62968129    -0.11400
C156        C  0.06499141  0.15277768  0.67107354     0.31100
C157        C  0.03381521  0.11266648  0.70213937     0.31100
C158        C  0.08033985  0.12333690  0.67640205    -0.05100
C159        C  0.05846561  0.16113405  0.70226817    -0.05900
C160        C  0.03589449  0.14321534  0.65789648    -0.05700
C161        C  0.06352349  0.10205773  0.69147444    -0.05100
C162        C  0.04203533  0.14150779  0.71831780    -0.05900
C163        C  0.01966800  0.12409167  0.67407975    -0.05700
C164        C  0.08268738  0.08586096  0.70794155    -0.31100
N165        N  0.10957270  0.09738947  0.70618391     0.15400
C166        C  0.10847847  0.11992717  0.68709320    -0.31100
H167        H  0.12532346  0.13633147  0.68554134     0.17300
C168        C  0.03890898  0.15475795  0.74513760    -0.30100
N169        N  0.05430440  0.18017386  0.74570368     0.14100
C170        C  0.06682101  0.18378610  0.71990075    -0.30100
C171        C  0.99197080  0.12417653  0.66229223    -0.30400
N172        N  0.99127800  0.14257817  0.63911942     0.14600
H173        H  0.97290433  0.11599199  0.67292026     0.17200
C174        C  0.01863032  0.15274232  0.63530154    -0.30400
H175        H  0.02387011  0.17096182  0.62117605     0.17200
H176        H  0.08076451  0.20193167  0.71431138     0.17200
H177        H  0.07629224  0.07014309  0.72426450     0.17300
H178        H  0.02575658  0.14757671  0.76279214     0.17200
C179        C  0.83099148  0.38695598  0.54535299     0.31100
C180        C  0.85737301  0.34691571  0.51038519     0.31100
C181        C  0.86431352  0.38622713  0.54730560    -0.05100
C182        C  0.82258683  0.35502787  0.55062136    -0.05900
C183        C  0.82548476  0.39075553  0.51220301    -0.05700
C184        C  0.87725532  0.36734898  0.52855855    -0.05100
C185        C  0.83555642  0.33420139  0.53270464    -0.05900
C186        C  0.83861756  0.37000033  0.49431286    -0.05700
C187        C  0.90554757  0.37656430  0.52760307    -0.31100
N188        N  0.91258560  0.39257435  0.55123403     0.15400
C189        C  0.88661471  0.40136264  0.56142372    -0.31100
H190        H  0.88454149  0.41643020  0.57907566     0.17300
C191        C  0.81469037  0.31207702  0.52966018    -0.30100
N192        N  0.79063951  0.31859351  0.54474442     0.14100
C193        C  0.79547885  0.34468570  0.55738753    -0.30100
C194        C  0.83998384  0.38237408  0.46697591    -0.30400
N195        N  0.82812551  0.40945597  0.46765303     0.14600
H196        H  0.85016179  0.37296971  0.44842453     0.17200
C197        C  0.82067385  0.41515150  0.49511021    -0.30400
H198        H  0.81379502  0.43638914  0.50238604     0.17200
H199        H  0.77887873  0.35735001  0.56762527     0.17200
H200        H  0.92071711  0.37124852  0.51117568     0.17300
H201        H  0.81566009  0.29395729  0.51497767     0.17200
C202        C  0.01392873  0.14242709  0.34875457     0.31100
C203        C  0.05165330  0.10687950  0.31948319     0.31100
C204        C  0.00290639  0.11127939  0.34274424    -0.05100
C205        C  0.02213643  0.15262132  0.31786652    -0.05900
C206        C  0.04281564  0.13491141  0.36383505    -0.05700
C207        C  0.02253192  0.09306324  0.32802993    -0.05100
C208        C  0.04082798  0.13440516  0.30291318    -0.05900
C209        C  0.06272214  0.11870245  0.34858532    -0.05700
C210        C  0.00662841  0.07136002  0.31529901    -0.31100
N211        N  0.97845071  0.07535126  0.32146167     0.15400
C212        C  0.97575643  0.10004480  0.33715394    -0.31100
H213        H  0.95538258  0.11071132  0.34144025     0.17300
C214        C  0.03523319  0.14002814  0.27372506    -0.30100
N215        N  0.01654094  0.16257922  0.27051229     0.14100
C216        C  0.00716805  0.16941855  0.29708424    -0.30100
C217        C  0.08965810  0.12622865  0.35998028    -0.30400
N218        N  0.08575471  0.14373056  0.38311799     0.14600
H219        H  0.11009179  0.12337883  0.34937257     0.17200
C220        C  0.05699492  0.14724608  0.38661757    -0.30400
H221        H  0.04777213  0.16380664  0.40022550     0.17200
H222        H  0.98970082  0.18457873  0.30088244     0.17200
H223        H  0.01459794  0.05553722  0.30019348     0.17300
H224        H  0.04280849  0.12771927  0.25561166     0.17200
N225        N  0.30956852  0.60579668  0.15233556    -0.00500
C226        C  0.28739297  0.62095386  0.14043674    -0.11300
C227        C  0.27717815  0.60579405  0.11586733    -0.06800
C228        C  0.29430520  0.58061513  0.11091296    -0.07500
C229        C  0.31454612  0.58207516  0.13519355    -0.11400
N230        N  0.29271112  0.39541323  0.13104700    -0.00500
C231        C  0.30003136  0.41788374  0.11322407    -0.11300
C232        C  0.27900976  0.42401234  0.09129578    -0.06800
C233        C  0.25730038  0.40184048  0.09719664    -0.07500
C234        C  0.26726978  0.38458427  0.12166001    -0.11400
C235        C  0.44556026  0.47070104  0.21002147     0.31100
C236        C  0.40765182  0.51045616  0.18588256     0.31100
C237        C  0.43958825  0.46773396  0.17710678    -0.05100
C238        C  0.41487549  0.46939236  0.22208595    -0.05900
C239        C  0.45385130  0.50318069  0.21244918    -0.05700
C240        C  0.42263641  0.49020886  0.16450720    -0.05100
C241        C  0.39602434  0.49049834  0.21063562    -0.05900
C242        C  0.43399111  0.52350210  0.20086254    -0.05700
C243        C  0.41151553  0.48073789  0.13873807    -0.31100
N244        N  0.41357581  0.45139879  0.13864806     0.15400
C245        C  0.43120234  0.44332291  0.16139489    -0.31100
H246        H  0.43177635  0.42126923  0.17018584     0.17300
C247        C  0.37682225  0.49616277  0.23255234    -0.30100
N248        N  0.38070713  0.47677351  0.25470922     0.14100
C249        C  0.40420637  0.46040038  0.24858630    -0.30100
C250        C  0.44439444  0.55075954  0.20660941    -0.30400
N251        N  0.47034871  0.54731861  0.22061407     0.14600
H252        H  0.43350035  0.57138500  0.20234318     0.17200
C253        C  0.47659573  0.51856298  0.22386756    -0.30400
H254        H  0.49562378  0.50973838  0.23515938     0.17200
H255        H  0.41423468  0.44475955  0.26347591     0.17200
H256        H  0.39452989  0.49245238  0.12667867     0.17300
H257        H  0.36255769  0.51491140  0.23333659     0.17200
N258        N  0.29453877  0.40184135  0.90989856    -0.00500
C259        C  0.28300854  0.41984868  0.93005178    -0.11300
C260        C  0.30083800  0.44431873  0.93650682    -0.06800
C261        C  0.32353451  0.44081333  0.91609414    -0.07500
C262        C  0.31827810  0.41518017  0.89994948    -0.11400
N263        N  0.28992644  0.62752809  0.91206741    -0.00500
C264        C  0.29906592  0.60509046  0.92971268    -0.11300
C265        C  0.28165314  0.60105193  0.95425879    -0.06800
C266        C  0.26154929  0.62499475  0.95036094    -0.07500
C267        C  0.26715238  0.63959776  0.92429406    -0.11400
C268        C  0.17658018  0.70029768  0.99754638     0.31100
C269        C  0.14184615  0.72290124  0.03877249     0.31100
C270        C  0.16909328  0.68023034  0.02316564    -0.05100
C271        C  0.18734158  0.72926488  0.01198171    -0.05900
C272        C  0.14606880  0.70908791  0.98669422    -0.05700
C273        C  0.15284732  0.69205122  0.04485570    -0.05100
C274        C  0.17024395  0.74020657  0.03362712    -0.05900
C275        C  0.12854353  0.71980242  0.00824859    -0.05700
C276        C  0.16054270  0.67685395  0.06983698    -0.31100
N277        N  0.17791732  0.65439049  0.06271653     0.15400
C278        C  0.18213767  0.65560915  0.03406355    -0.31100
H279        H  0.19894313  0.64336760  0.02364949     0.17300
C280        C  0.18192452  0.76706415  0.04140675    -0.30100
N281        N  0.20357604  0.77475272  0.02308411     0.14100
C282        C  0.20632762  0.75168933  0.00473463    -0.30100
C283        C  0.10248940  0.72737051  0.99597953    -0.30400
N284        N  0.10397203  0.72388541  0.96715397     0.14600
H285        H  0.08447483  0.73719131  0.00684966     0.17200
C286        C  0.13053996  0.71292757  0.96095395    -0.30400
H287        H  0.13861701  0.71016781  0.93938436     0.17200
H288        H  0.22019849  0.75146803  0.98625084     0.17200
H289        H  0.15753511  0.68426534  0.09172844     0.17300
H290        H  0.17434050  0.77982362  0.05906639     0.17200
C291        C  0.44210302  0.55163085  0.83091607     0.31100
C292        C  0.40381830  0.51038084  0.85010430     0.31100
C293        C  0.43512879  0.55287103  0.86331953    -0.05100
C294        C  0.41147998  0.55335219  0.81655786    -0.05900
C295        C  0.45069893  0.51911541  0.82715299    -0.05700
C296        C  0.41803283  0.53000058  0.87332196    -0.05100
C297        C  0.39258299  0.53098706  0.82534763    -0.05900
C298        C  0.43077745  0.49827415  0.83668027    -0.05700
C299        C  0.40680278  0.53793835  0.89901345    -0.31100
N300        N  0.40960719  0.56702274  0.90151833     0.15400
C301        C  0.42691110  0.57636703  0.88003732    -0.31100
H302        H  0.42798743  0.59898973  0.87297139     0.17300
C303        C  0.37664616  0.52405746  0.80042138    -0.30100
N304        N  0.38080069  0.54425984  0.77955426     0.14100
C305        C  0.40247100  0.56199698  0.78877304    -0.30100
C306        C  0.44135138  0.47121452  0.83090747    -0.30400
N307        N  0.46755145  0.47473677  0.81873305     0.14600
H308        H  0.43037132  0.45060094  0.83434533     0.17200
C309        C  0.47353624  0.50379610  0.81643446    -0.30400
H310        H  0.49288804  0.51300377  0.80720307     0.17200
H311        H  0.41245254  0.57834774  0.77523182     0.17200
H312        H  0.38979185  0.52581149  0.90959923     0.17300
H313        H  0.36448277  0.50409007  0.79687056     0.17200
C314        C  0.13090987  0.33977045  0.97791676     0.31100
C315        C  0.16158821  0.36468551  0.02288856     0.31100
C316        C  0.11795977  0.33600434  0.00843725    -0.05100
C317        C  0.16150362  0.32787018  0.98346717    -0.05900
C318        C  0.13563622  0.37358534  0.97544924    -0.05700
C319        C  0.13355452  0.34944227  0.03104807    -0.05100
C320        C  0.17762727  0.34162546  0.00499624    -0.05900
C321        C  0.15070309  0.38648001  0.99938742    -0.05700
C322        C  0.12545902  0.33698505  0.05670662    -0.31100
N323        N  0.10653006  0.31511077  0.05102481     0.15400
C324        C  0.10308424  0.31350164  0.02179668    -0.31100
H325        H  0.09261023  0.29545107  0.01098930     0.17300
C326        C  0.20416009  0.32765161  0.00677647    -0.30100
N327        N  0.20323338  0.30420456  0.98927890     0.14100
C328        C  0.17707201  0.30367312  0.97518301    -0.30100
C329        C  0.16680117  0.40912951  0.98843096    -0.30400
N330        N  0.16542478  0.40891929  0.95933376     0.14600
H331        H  0.18535613  0.41851581  0.99980714     0.17200
C332        C  0.14493601  0.38917368  0.95141972    -0.30400
H333        H  0.14135005  0.38284223  0.92922556     0.17200
H334        H  0.16952488  0.28637273  0.96105690     0.17200
H335        H  0.13564741  0.34117677  0.07758004     0.17300
H336        H  0.22228122  0.33258194  0.02131095     0.17200
N337        N  0.78683588  0.39461905  0.13369083    -0.00500
C338        C  0.79466288  0.41033140  0.10975772    -0.11300
C339        C  0.77695106  0.43581079  0.10471596    -0.06800
C340        C  0.75867662  0.43461267  0.13012528    -0.07500
C341        C  0.76577753  0.40901896  0.14664056    -0.11400
N342        N  0.78423496  0.62794038  0.12327888    -0.00500
C343        C  0.80988058  0.63506040  0.11259420    -0.11300
C344        C  0.81746860  0.61453186  0.09134877    -0.06800
C345        C  0.79404804  0.59426166  0.08733725    -0.07500
C346        C  0.77378902  0.60429306  0.10819164    -0.11400
N347        N  0.79118327  0.60249460  0.88473342    -0.00500
C348        C  0.78546217  0.57881115  0.90217200    -0.11300
C349        C  0.80133396  0.57999680  0.92966986    -0.06800
C350        C  0.81736648  0.60720812  0.92605470    -0.07500
C351        C  0.80960914  0.62044430  0.89883345    -0.11400
N352        N  0.81507599  0.40592288  0.93586394    -0.00500
C353        C  0.80629740  0.39020924  0.91191759    -0.11300
C354        C  0.77710758  0.39426352  0.90554954    -0.06800
C355        C  0.76741877  0.41352215  0.92787430    -0.07500
C356        C  0.79202826  0.42211243  0.94550895    -0.11400
C357        C  0.69219613  0.50994638  0.84700928     0.31100
C358        C  0.65007354  0.47137887  0.82805494     0.31100
C359        C  0.66428579  0.52382379  0.83440571    -0.05100
C360        C  0.70068502  0.48968217  0.82193949    -0.05900
C361        C  0.68016276  0.48854046  0.86937169    -0.05700
C362        C  0.64289061  0.50402218  0.82573802    -0.05100
C363        C  0.67975703  0.46913079  0.81308256    -0.05900
C364        C  0.65924860  0.46852926  0.86022715    -0.05700
C365        C  0.61838828  0.51947091  0.81872149    -0.31100
N366        N  0.62459498  0.54832340  0.82037750     0.15400
C367        C  0.65263335  0.55127795  0.83018375    -0.31100
H368        H  0.66361515  0.57179966  0.83425444     0.17300
C369        C  0.68722317  0.45977488  0.78586257    -0.30100
N370        N  0.70960588  0.47617667  0.77611767     0.14100
C371        C  0.71700105  0.49498122  0.79770879    -0.30100
C372        C  0.65562295  0.44940546  0.88332024    -0.30400
N373        N  0.67217408  0.45857903  0.90626013     0.14600
H374        H  0.64467731  0.42856625  0.88289296     0.17200
C375        C  0.68727259  0.48243162  0.89749596    -0.30400
H376        H  0.70476578  0.49288070  0.90958698     0.17200
H377        H  0.73133842  0.51350210  0.79504644     0.17200
H378        H  0.59730669  0.51009364  0.81380218     0.17300
H379        H  0.67561457  0.44335801  0.77367553     0.17200
C380        C  0.93498859  0.30684333  0.03870414     0.31100
C381        C  0.89670312  0.33508686  0.00169589     0.31100
C382        C  0.94371789  0.30979767  0.00678100    -0.05100
C383        C  0.90451320  0.29318154  0.03615729    -0.05900
C384        C  0.92772521  0.33873926  0.04671624    -0.05700
C385        C  0.92382225  0.32377352  0.98797751    -0.05100
C386        C  0.88539717  0.30689196  0.01652783    -0.05900
C387        C  0.90992306  0.35355172  0.02623597    -0.05700
C388        C  0.93453241  0.32321402  0.96074678    -0.31100
N389        N  0.96071371  0.31018544  0.96271181     0.15400
C390        C  0.96676804  0.30175146  0.99044850    -0.31100
H391        H  0.98626569  0.29043850  0.99789628     0.17300
C392        C  0.86422075  0.28638899  0.00970208    -0.30100
N393        N  0.86762265  0.26250584  0.02732557     0.14100
C394        C  0.89242494  0.26661842  0.04349725    -0.30100
C395        C  0.89690928  0.37620166  0.03961495    -0.30400
N396        N  0.90168011  0.37350109  0.06830464     0.14600
H397        H  0.87920799  0.38900212  0.03010375     0.17200
C398        C  0.91989975  0.35050899  0.07306805    -0.30400
H399        H  0.92273281  0.33962014  0.09389777     0.17200
H400        H  0.90193561  0.25076164  0.05849172     0.17200
H401        H  0.92421330  0.33111728  0.94082014     0.17300
H402        H  0.84856703  0.28827191  0.99187778     0.17200
C403        C  0.90804307  0.66883010  0.99308998     0.31100
C404        C  0.94409915  0.70365203  0.02605152     0.31100
C405        C  0.92695044  0.69027947  0.97652526    -0.05100
C406        C  0.89334642  0.68807412  0.01582524    -0.05900
C407        C  0.93065101  0.65192523  0.01217579    -0.05700
C408        C  0.94484740  0.70837426  0.99310973    -0.05100
C409        C  0.91149780  0.70701082  0.03094313    -0.05900
C410        C  0.94819559  0.67004379  0.03069397    -0.05700
C411        C  0.95470045  0.72968502  0.97453559    -0.31100
N412        N  0.94538979  0.72339312  0.94717417     0.15400
C413        C  0.92821261  0.69942865  0.94811437    -0.31100
H414        H  0.91668173  0.69010677  0.92966547     0.17300
C415        C  0.89434608  0.72961705  0.03968749    -0.30100
N416        N  0.86596172  0.72337184  0.03347758     0.14100
C417        C  0.86535364  0.69700632  0.02025081    -0.30100
C418        C  0.94724869  0.65645417  0.05785958    -0.30400
N419        N  0.93018048  0.63233959  0.05672641     0.14600
H420        H  0.95183554  0.66772947  0.07792559     0.17200
C421        C  0.92312333  0.62801401  0.02863956    -0.30400
H422        H  0.90513341  0.61392137  0.02263031     0.17200
H423        H  0.84611366  0.68656658  0.01139181     0.17200
H424        H  0.96748305  0.74869192  0.98034417     0.17300
H425        H  0.90267890  0.75061039  0.04646583     0.17200
C426        C  0.63724066  0.54830839  0.20960341     0.31100
C427        C  0.67123756  0.50812133  0.18286628     0.31100
C428        C  0.63874110  0.55178948  0.17621426    -0.05100
C429        C  0.66978784  0.54860159  0.21874659    -0.05900
C430        C  0.62921845  0.51614454  0.21372079    -0.05700
C431        C  0.65494277  0.52989698  0.16229291    -0.05100
C432        C  0.68734261  0.52892576  0.20444543    -0.05900
C433        C  0.64676525  0.49581016  0.20091074    -0.05700
C434        C  0.66686053  0.54308162  0.13859415    -0.31100
N435        N  0.66191691  0.57200210  0.13861327     0.15400
C436        C  0.64464277  0.57753253  0.16113124    -0.31100
H437        H  0.64215702  0.59914057  0.17006082     0.17300
C438        C  0.71378056  0.52830450  0.21961346    -0.30100
N439        N  0.71191026  0.54458224  0.24377687     0.14100
C440        C  0.68566513  0.55799293  0.24284062    -0.30100
C441        C  0.63776634  0.46865085  0.20995189    -0.30400
N442        N  0.61493337  0.47192818  0.22772519     0.14600
H443        H  0.64789192  0.44813031  0.20473245     0.17200
C444        C  0.60913196  0.50104105  0.22926001    -0.30400
H445        H  0.59148832  0.51091308  0.24050111     0.17200
H446        H  0.67812928  0.57181919  0.25986401     0.17200
H447        H  0.68503648  0.53415508  0.12730721     0.17300
H448        H  0.73220534  0.51461483  0.21536128     0.17200
N449        N  0.47330620  0.11927807  0.76074896    -0.00500
C450        C  0.44908254  0.13559961  0.76629609    -0.11300
C451        C  0.43353980  0.12173488  0.78705052    -0.06800
C452        C  0.44852693  0.09581226  0.79571656    -0.07500
C453        C  0.47416929  0.09393434  0.77807673    -0.11400
N454        N  0.65895929  0.07464598  0.79091694    -0.00500
C455        C  0.67365056  0.10078787  0.78938473    -0.11300
C456        C  0.66110221  0.11839834  0.76859330    -0.06800
C457        C  0.63734709  0.10243782  0.75682501    -0.07500
C458        C  0.63451157  0.07548813  0.77245842    -0.11400
N459        N  0.65530423  0.88611543  0.77882611    -0.00500
C460        C  0.63400020  0.90455331  0.78930934    -0.11300
C461        C  0.61708347  0.91744889  0.76584872    -0.06800
C462        C  0.62805892  0.90292950  0.74081205    -0.07500
C463        C  0.65135315  0.88447885  0.74982943    -0.11400
N464        N  0.42106723  0.90974657  0.79521662    -0.00500
C465        C  0.44154240  0.93017685  0.80334689    -0.11300
C466        C  0.46096821  0.93608929  0.78031489    -0.06800
C467        C  0.45073276  0.91685788  0.75861338    -0.07500
C468        C  0.42693709  0.90119132  0.76853071    -0.11400
C469        C  0.51691854  0.82011591  0.61653609     0.31100
C470        C  0.55979640  0.84842846  0.64803053     0.31100
C471        C  0.50916366  0.85043230  0.62747480    -0.05100
C472        C  0.52765951  0.80457236  0.64474303    -0.05900
C473        C  0.54542647  0.82658287  0.60073285    -0.05700
C474        C  0.53120112  0.86517870  0.64206381    -0.05100
C475        C  0.55054891  0.81794290  0.65945551    -0.05900
C476        C  0.56766992  0.84101066  0.61691805    -0.05700
C477        C  0.51932968  0.88999163  0.65309858    -0.31100
N478        N  0.49012135  0.88891176  0.64908531     0.15400
C479        C  0.48378157  0.86498238  0.63292835    -0.31100
H480        H  0.46217054  0.85599908  0.62987627     0.17300
C481        C  0.55813005  0.80012626  0.68297978    -0.30100
N482        N  0.53864641  0.77803222  0.68460912     0.14100
C483        C  0.51981937  0.78069912  0.66160251    -0.30100
C484        C  0.59324945  0.83445877  0.60386150    -0.30400
N485        N  0.58720138  0.81829723  0.57999989     0.14600
H486        H  0.61493880  0.83843382  0.61250601     0.17200
C487        C  0.55821712  0.81333309  0.57795919    -0.30400
H488        H  0.54748710  0.79913096  0.56241695     0.17200
H489        H  0.50133465  0.76646209  0.65818189     0.17200
H490        H  0.53024925  0.90435739  0.66838913     0.17300
H491        H  0.57594160  0.80352971  0.69822749     0.17200
C492        C  0.39539038  0.03608817  0.89560956     0.31100
C493        C  0.36639182  0.00510391  0.93737082     0.31100
C494        C  0.38104058  0.05412409  0.91888386    -0.05100
C495        C  0.37032004  0.01579617  0.88459090    -0.05900
C496        C  0.41435628  0.01483829  0.91449362    -0.05700
C497        C  0.36645266  0.03843557  0.94003318    -0.05100
C498        C  0.35574352  0.00058463  0.90593479    -0.05900
C499        C  0.39906670  0.99781275  0.93514860    -0.05700
C500        C  0.35603640  0.05833602  0.95914040    -0.31100
N501        N  0.36390062  0.08550949  0.95013912     0.15400
C502        C  0.37935411  0.08324959  0.92571641    -0.31100
H503        H  0.38817000  0.10145449  0.91363920     0.17300
C504        C  0.33149492  0.98820379  0.89304890    -0.30100
N505        N  0.32976046  0.99630435  0.86480944     0.14100
C506        C  0.35406190  0.01192815  0.85903683    -0.30100
C507        C  0.41046562  0.96985733  0.93342861    -0.30400
N508        N  0.43172926  0.96934567  0.91402451     0.14600
H509        H  0.39905090  0.95029554  0.93999621     0.17200
C510        C  0.43517557  0.99680213  0.90392823    -0.30400
H511        H  0.44575008  0.00094172  0.88367083     0.17200
H512        H  0.35782133  0.02225418  0.83835073     0.17200
H513        H  0.34347394  0.05354468  0.97806871     0.17300
H514        H  0.31458634  0.97623330  0.90374851     0.17200
C515        C  0.73043748  0.98903088  0.85096488     0.31100
C516        C  0.75988991  0.94879916  0.88489987     0.31100
C517        C  0.71432888  0.96136102  0.85800245    -0.05100
C518        C  0.75864463  0.97725352  0.83793835    -0.05900
C519        C  0.74156450  0.99962608  0.88032425    -0.05700
C520        C  0.72872079  0.94075944  0.87471489    -0.05100
C521        C  0.77456218  0.95662134  0.85571966    -0.05900
C522        C  0.75624954  0.97938896  0.89783582    -0.05700
C523        C  0.70818555  0.91996796  0.88221355    -0.31100
N524        N  0.68197283  0.92863490  0.87127985     0.15400
C525        C  0.68597552  0.95341273  0.85558032    -0.31100
H526        H  0.66913214  0.96555758  0.84391351     0.17300
C527        C  0.80353990  0.96222084  0.84996285    -0.30100
N528        N  0.80556816  0.98236010  0.82835109     0.14100
C529        C  0.77871174  0.99275305  0.82240096    -0.30100
C530        C  0.76935339  0.99479630  0.92014158    -0.30400
N531        N  0.76272696  0.02357766  0.91631871     0.14600
H532        H  0.78312053  0.98581793  0.93741366     0.17200
C533        C  0.74624398  0.02667673  0.89177418    -0.30400
H534        H  0.73906274  0.04733162  0.88239305     0.17200
H535        H  0.77468064  0.01290393  0.81049525     0.17200
H536        H  0.71166466  0.90085657  0.89577611     0.17300
H537        H  0.82203322  0.95472872  0.86282082     0.17200
C538        C  0.52341612  0.17571816  0.66205804     0.31100
C539        C  0.55025127  0.19858783  0.61455943     0.31100
C540        C  0.50348640  0.18378702  0.63673164    -0.05100
C541        C  0.54021465  0.20500984  0.66664127    -0.05900
C542        C  0.54489694  0.15568899  0.64749122    -0.05700
C543        C  0.51676589  0.19504032  0.61210479    -0.05100
C544        C  0.55416221  0.21632492  0.64246247    -0.05900
C545        C  0.56072651  0.16811202  0.62505476    -0.05700
C546        C  0.49445284  0.20270078  0.59303935    -0.31100
N547        N  0.46892694  0.19658800  0.60589449     0.15400
C548        C  0.47412944  0.18513936  0.63251330    -0.31100
H549        H  0.45773647  0.17946818  0.64794578     0.17300
C550        C  0.56356975  0.24428542  0.64902691    -0.30100
N551        N  0.55453965  0.25095491  0.67584815     0.14100
C552        C  0.53933328  0.22779812  0.68607448    -0.30100
C553        C  0.58892176  0.15813633  0.63054877    -0.30400
N554        N  0.58879436  0.13758621  0.65170294     0.14600
H555        H  0.60852174  0.16893810  0.62369501     0.17200
C556        C  0.56170619  0.13518801  0.66118329    -0.30400
H557        H  0.55667219  0.12495003  0.68174045     0.17200
H558        H  0.52702901  0.22855028  0.70563200     0.17200
H559        H  0.49638426  0.21298487  0.57196350     0.17300
H560        H  0.57537963  0.25892967  0.63508996     0.17200
Zn561      Zn  0.86717037  0.77826662  0.81793797     1.49700
Zn562      Zn  0.83141541  0.83688963  0.81100017     1.49400
Zn563      Zn  0.86351609  0.81828885  0.75921382     1.49100
Zn564      Zn  0.81206257  0.77642901  0.77651922     1.49500
O565        O  0.84241807  0.80181357  0.79179421    -1.83000
O566        O  0.86605213  0.79288477  0.85897632    -0.73600
O567        O  0.85645333  0.87281180  0.80366726    -0.73500
O568        O  0.90294312  0.80109334  0.75902255    -0.73000
O569        O  0.83276019  0.82762266  0.85192139    -0.73700
O570        O  0.90644234  0.77890130  0.80241372    -0.73300
O571        O  0.87162315  0.86068733  0.76051212    -0.73800
O572        O  0.83341795  0.76648188  0.73405711    -0.73200
O573        O  0.78983253  0.84524184  0.80202853    -0.74000
O574        O  0.84415472  0.81154385  0.72153535    -0.73400
O575        O  0.77297144  0.80521893  0.77983424    -0.73800
O576        O  0.80971046  0.73816026  0.80724634    -0.73700
O577        O  0.85478671  0.73670321  0.82508890    -0.73500
C578        C  0.84680215  0.80996098  0.86831738     0.78300
C579        C  0.86967525  0.87902770  0.78061585     0.78700
C580        C  0.91751948  0.78818811  0.77909923     0.77700
C581        C  0.84536045  0.78469879  0.71602081     0.78100
C582        C  0.76868537  0.83101948  0.79081803     0.79200
C583        C  0.82955493  0.72555273  0.82363128     0.78300
Zn584      Zn  0.83190862  0.19176696  0.77678903     1.49700
Zn585      Zn  0.85718997  0.25377486  0.79560306     1.49400
Zn586      Zn  0.80915225  0.22287272  0.83360000     1.49100
Zn587      Zn  0.87217132  0.19762804  0.83423713     1.49500
O588        O  0.84229414  0.21659748  0.80967472    -1.83000
O589        O  0.84420442  0.20875546  0.73728948    -0.73600
O590        O  0.84106637  0.28872950  0.81862825    -0.73500
O591        O  0.77393143  0.19621202  0.82113953    -0.73000
O592        O  0.86336030  0.25110328  0.75169165    -0.73700
O593        O  0.79195640  0.17381747  0.78308831    -0.73300
O594        O  0.80946090  0.26612614  0.84686098    -0.73800
O595        O  0.86136675  0.18738221  0.87408018    -0.73200
O596        O  0.89844879  0.25772703  0.80702829    -0.74000
O597        O  0.81685978  0.20456591  0.87150989    -0.73400
O598        O  0.90720353  0.22067904  0.83715064    -0.73800
O599        O  0.88490770  0.16122854  0.81740952    -0.73700
O600        O  0.85684935  0.15653665  0.77806645    -0.73500
C601        C  0.85990271  0.23127292  0.73246634     0.78300
C602        C  0.82486513  0.28868195  0.84078464     0.78700
C603        C  0.77271631  0.17556731  0.80244966     0.77700
C604        C  0.83716310  0.19156763  0.88544977     0.78100
C605        C  0.91547167  0.24310297  0.82350936     0.79200
C606        C  0.87693437  0.14729622  0.79510677     0.78300
N607        N  0.91162171  0.01310307  0.77650592    -0.00500
C608        C  0.92459485  0.99041710  0.76401405    -0.11300
C609        C  0.94858262  0.00028642  0.74962717    -0.06800
C610        C  0.95094861  0.03014072  0.75365492    -0.07500
C611        C  0.92708395  0.03727199  0.76979158    -0.11400
N612        N  0.05703456  0.26420090  0.83608219    -0.00500
C613        C  0.03251388  0.27494006  0.84666322    -0.11300
C614        C  0.03814024  0.28849113  0.87287319    -0.06800
C615        C  0.06783369  0.28641824  0.87869318    -0.07500
C616        C  0.07835321  0.27153536  0.85518525    -0.11400
Zn617      Zn  0.27045100  0.20658646  0.76896734     1.49700
Zn618      Zn  0.30054111  0.24216198  0.82039859     1.49400
Zn619      Zn  0.24314858  0.26725850  0.78969795     1.49100
Zn620      Zn  0.24410039  0.21318736  0.82823020     1.49500
O621        O  0.26538715  0.23344667  0.79972963    -1.83000
O622        O  0.31286063  0.19277778  0.77046730    -0.73600
O623        O  0.29911899  0.28460123  0.83445400    -0.73500
O624        O  0.22719918  0.26241013  0.74709161    -0.73000
O625        O  0.33471521  0.22076420  0.80384342    -0.73700
O626        O  0.24666103  0.22025678  0.73260092    -0.73300
O627        O  0.25971423  0.30337916  0.81208034    -0.73800
O628        O  0.20248731  0.21874559  0.82403185    -0.73200
O629        O  0.30112699  0.22225549  0.85835278    -0.74000
O630        O  0.20639382  0.26465372  0.80982732    -0.73400
O631        O  0.25462295  0.22527255  0.86747540    -0.73800
O632        O  0.25138494  0.17159502  0.82703537    -0.73700
O633        O  0.25248152  0.16853908  0.77923309    -0.73500
C634        C  0.33454950  0.19823367  0.78763935     0.78300
C635        C  0.27995175  0.30489214  0.83181266     0.78700
C636        C  0.22856422  0.24139922  0.72878558     0.77700
C637        C  0.19187173  0.24401650  0.82076892     0.78100
C638        C  0.28070789  0.22206985  0.87603258     0.79200
C639        C  0.25023561  0.15680980  0.80410683     0.78300
N640        N  0.22136480  0.01472989  0.80400942    -0.00500
C641        C  0.20500964  0.99635266  0.78779230    -0.11300
C642        C  0.18352840  0.01084887  0.77191825    -0.06800
C643        C  0.18708875  0.03972033  0.77907654    -0.07500
C644        C  0.20990785  0.04137525  0.79897106    -0.11400
Zn645      Zn  0.27744418  0.80386502  0.84197545     1.49700
Zn646      Zn  0.25893887  0.82924921  0.77998500     1.49400
Zn647      Zn  0.22147567  0.77742435  0.80487850     1.49100
Zn648      Zn  0.22194120  0.83527708  0.83392152     1.49500
O649        O  0.24667532  0.80964711  0.81420797    -1.83000
O650        O  0.31534061  0.82286737  0.82841701    -0.73600
O651        O  0.23798334  0.81498143  0.74237748    -0.73500
O652        O  0.23729875  0.74158622  0.82871288    -0.73000
O653        O  0.30154348  0.84190204  0.78547283    -0.73700
O654        O  0.27327415  0.76186766  0.85542835    -0.73300
O655        O  0.20809371  0.78181875  0.76095413    -0.73800
O656        O  0.19410878  0.81441980  0.85753126    -0.73200
O657        O  0.24072976  0.86727249  0.78086709    -0.74000
O658        O  0.18344165  0.78183950  0.82419297    -0.73400
O659        O  0.20055903  0.85822388  0.80461198    -0.73800
O660        O  0.24186322  0.86220291  0.86155129    -0.73700
O661        O  0.27188299  0.82773911  0.87780222    -0.73500
C662        C  0.31967711  0.84035898  0.80710133     0.78300
C663        C  0.21519948  0.79892061  0.73992751     0.78700
C664        C  0.25549311  0.74081351  0.85048736     0.77700
C665        C  0.17696293  0.79567732  0.84676630     0.78100
C666        C  0.21592616  0.87475784  0.78913428     0.79200
C667        C  0.25964372  0.85238303  0.88073027     0.78300
N668        N  0.04215476  0.80925247  0.84080058    -0.00500
C669        C  0.05685824  0.80155940  0.86518541    -0.11300
C670        C  0.03873279  0.78661106  0.88323001    -0.06800
C671        C  0.01205699  0.78505165  0.86944975    -0.07500
C672        C  0.01487613  0.79914258  0.84314719    -0.11400
N673        N  0.27043076  0.88266876  0.01639505    -0.00500
C674        C  0.27979124  0.89946829  0.99384853    -0.11300
C675        C  0.29481871  0.92416383  0.00421031    -0.06800
C676        C  0.29322167  0.92261850  0.03408744    -0.07500
C677        C  0.27879015  0.89705905  0.04074578    -0.11400
Zn678      Zn  0.26789896  0.78306415  0.24859270     1.49700
Zn679      Zn  0.24259174  0.79259037  0.18163403     1.49400
Zn680      Zn  0.20469183  0.80951726  0.23203290     1.49100
Zn681      Zn  0.25863540  0.84699665  0.21813990     1.49500
O682        O  0.24478153  0.80710900  0.22091838    -1.83000
O683        O  0.27244657  0.74080161  0.22568398    -0.73600
O684        O  0.20130962  0.78998912  0.16639646    -0.73500
O685        O  0.19961483  0.79907980  0.27300917    -0.73000
O686        O  0.25862587  0.75243474  0.18015234    -0.73700
O687        O  0.24261034  0.78250194  0.28880086    -0.73300
O688        O  0.17762608  0.78628265  0.20736578    -0.73800
O689        O  0.23152878  0.87472463  0.23593270    -0.73200
O690        O  0.26202845  0.81874519  0.15339689    -0.74000
O691        O  0.19026730  0.85047008  0.22932630    -0.73400
O692        O  0.26156838  0.86070670  0.17686847    -0.73800
O693        O  0.29817725  0.85119698  0.23594293    -0.73700
O694        O  0.30882939  0.80728527  0.25501204    -0.73500
C695        C  0.26831442  0.73378032  0.19859884     0.78300
C696        C  0.17819470  0.78516951  0.17997252     0.78700
C697        C  0.21599051  0.78999855  0.29370932     0.77700
C698        C  0.20394295  0.87396739  0.23464628     0.78100
C699        C  0.26456741  0.84640139  0.15374839     0.79200
C700        C  0.31602939  0.83406182  0.24892176     0.78300
N701        N  0.04056993  0.78855796  0.15018660    -0.00500
C702        C  0.01549100  0.78403952  0.13453080    -0.11300
C703        C  0.02089472  0.76666272  0.11008366    -0.06800
C704        C  0.05080805  0.76202659  0.11178288    -0.07500
C705        C  0.06172715  0.77486093  0.13646828    -0.11400
Zn706      Zn  0.86364466  0.78348847  0.21388169     1.49700
Zn707      Zn  0.79856698  0.79810968  0.19320237     1.49400
Zn708      Zn  0.83134684  0.83394035  0.24313231     1.49100
Zn709      Zn  0.84820391  0.84345504  0.18088243     1.49500
O710        O  0.83520246  0.81281757  0.20784892    -1.83000
O711        O  0.85060459  0.74567480  0.19415502    -0.73600
O712        O  0.76567458  0.82447055  0.20921736    -0.73500
O713        O  0.85498791  0.81679952  0.27890339    -0.73000
O714        O  0.80395720  0.75409822  0.18198035    -0.73700
O715        O  0.88064558  0.78379682  0.25561852    -0.73300
O716        O  0.78960856  0.85294220  0.24084130    -0.73800
O717        O  0.83668735  0.88240804  0.19573906    -0.73200
O718        O  0.79132619  0.81109638  0.15330849    -0.74000
O719        O  0.85623944  0.86764373  0.23667970    -0.73400
O720        O  0.82797726  0.84039552  0.14375380    -0.73800
O721        O  0.89050462  0.84061309  0.17265354    -0.73700
O722        O  0.89699121  0.79607351  0.19152908    -0.73500
C723        C  0.82703302  0.73820232  0.18087140     0.78300
C724        C  0.76718132  0.84802937  0.22424479     0.78700
C725        C  0.87661339  0.79904583  0.27827925     0.77700
C726        C  0.84325294  0.88723561  0.22201683     0.78100
C727        C  0.80460661  0.82774657  0.13625346     0.79200
C728        C  0.90611874  0.81812879  0.17756703     0.78300
N729        N  0.79477761  0.81923506  0.00086479    -0.00500
C730        C  0.77825969  0.83671588  0.01671916    -0.11300
C731        C  0.76834826  0.86007745  0.00039778    -0.06800
C732        C  0.77896863  0.85713662  0.97269770    -0.07500
C733        C  0.79552155  0.83150962  0.97416170    -0.11400
Zn734      Zn  0.21549121  0.24195148  0.19981368     1.49700
Zn735      Zn  0.25083618  0.18469079  0.20925568     1.49400
Zn736      Zn  0.26067444  0.23866986  0.25294051     1.49100
Zn737      Zn  0.20357151  0.19781503  0.24905354     1.49500
O738        O  0.23374689  0.21683868  0.22893021    -1.83000
O739        O  0.23305040  0.23651016  0.16103094    -0.73600
O740        O  0.28905806  0.17317369  0.22592768    -0.73500
O741        O  0.26522253  0.27789963  0.22338549    -0.73000
O742        O  0.25555479  0.19405572  0.16833174    -0.73700
O743        O  0.21933006  0.28342936  0.20952078    -0.73300
O744        O  0.29979954  0.20947178  0.25615470    -0.73800
O745        O  0.19822393  0.21397173  0.28680681    -0.73200
O746        O  0.22664303  0.14943196  0.21199703    -0.74000
O747        O  0.23634389  0.24299107  0.29462748    -0.73400
O748        O  0.21388089  0.15742173  0.25673771    -0.73800
O749        O  0.16494357  0.19925298  0.22721506    -0.73700
O750        O  0.17402373  0.23421618  0.19499636    -0.73500
C751        C  0.24778747  0.21521234  0.15193606     0.78300
C752        C  0.30642270  0.18476117  0.24416929     0.78700
C753        C  0.24528201  0.29202338  0.20827420     0.77700
C754        C  0.21207248  0.23135409  0.30313726     0.78100
C755        C  0.21622128  0.14048460  0.23560976     0.79200
C756        C  0.15677398  0.21648111  0.20677787     0.78300
N757        N  0.01962102  0.21692439  0.15993682    -0.00500
C758        C  0.04572631  0.22496950  0.15010152    -0.11300
C759        C  0.04226115  0.24098933  0.12454764    -0.06800
C760        C  0.01288794  0.24278009  0.11856489    -0.07500
C761        C  0.99981347  0.22784663  0.14067244    -0.11400
N762        N  0.16809353  0.00991319  0.23157351    -0.00500
C763        C  0.15408469  0.03419121  0.24006238    -0.11300
C764        C  0.12901581  0.02760030  0.25538244    -0.06800
C765        C  0.12824327  0.99715071  0.25569792    -0.07500
C766        C  0.15263806  0.98726676  0.24157137    -0.11400
N767        N  0.29259631  0.22239432  0.01602988    -0.00500
C768        C  0.29911229  0.20788460  0.04105859    -0.11300
C769        C  0.32002686  0.18658547  0.03617784    -0.06800
C770        C  0.32662199  0.18846100  0.00730722    -0.07500
C771        C  0.30961159  0.21072779  0.99586657    -0.11400
N772        N  0.84076714  0.01755872  0.23885630    -0.00500
C773        C  0.84349893  0.99315792  0.25621290    -0.11300
C774        C  0.86966503  0.99468817  0.27239238    -0.06800
C775        C  0.88134267  0.02116257  0.26632084    -0.07500
C776        C  0.86414690  0.03456875  0.24542412    -0.11400
Zn777      Zn  0.80997738  0.17426218  0.21164562     1.49700
Zn778      Zn  0.86473175  0.21268815  0.22411906     1.49400
Zn779      Zn  0.82261247  0.22717698  0.17619013     1.49100
Zn780      Zn  0.80342174  0.23571691  0.24222631     1.49500
O781        O  0.82416959  0.21290366  0.21501239    -1.83000
O782        O  0.84187145  0.14743803  0.21557479    -0.73600
O783        O  0.88348218  0.24110714  0.19897525    -0.73500
O784        O  0.79613596  0.20643014  0.14954992    -0.73000
O785        O  0.88257186  0.17362135  0.21748934    -0.73700
O786        O  0.79132679  0.16468261  0.17335913    -0.73300
O787        O  0.86121796  0.22493900  0.15936604    -0.73800
O788        O  0.79918235  0.27810005  0.22067855    -0.73200
O789        O  0.87387644  0.22163386  0.26498113    -0.74000
O790        O  0.81231788  0.26769330  0.17574045    -0.73400
O791        O  0.83148384  0.23572376  0.28216620    -0.73800
O792        O  0.76302281  0.21091339  0.24221196    -0.73700
O793        O  0.78188335  0.16636478  0.24135419    -0.73500
C794        C  0.86926878  0.14936920  0.21641258     0.78300
C795        C  0.88355607  0.23513506  0.17225050     0.78700
C796        C  0.78760029  0.18016406  0.15060682     0.77700
C797        C  0.80376170  0.28575292  0.19409771     0.78100
C798        C  0.85895141  0.22979055  0.28600631     0.79200
C799        C  0.75982549  0.18278697  0.24191081     0.78300
N800        N  0.80344990  0.15579374  0.01864483    -0.00500
C801        C  0.80453167  0.14125016  0.99348447    -0.11300
C802        C  0.78840651  0.11593648  0.99484302    -0.06800
C803        C  0.77693178  0.11503571  0.02192991    -0.07500
C804        C  0.78671503  0.13967068  0.03630075    -0.11400
N805        N  0.16627866  0.75127012  0.41486917    -0.00500
C806        C  0.15936597  0.77860014  0.40589775    -0.11300
C807        C  0.13816538  0.79050913  0.42465993    -0.06800
C808        C  0.13060463  0.76777843  0.44527842    -0.07500
C809        C  0.15010259  0.74458855  0.43838794    -0.11400
N810        N  0.12186908  0.79602731  0.61656924    -0.00500
C811        C  0.14200891  0.78706713  0.63731364    -0.11300
C812        C  0.14672739  0.75790031  0.63493295    -0.06800
C813        C  0.12823366  0.74820512  0.61257911    -0.07500
C814        C  0.11245368  0.77200807  0.60097704    -0.11400
N815        N  0.92561926  0.75921203  0.62211855    -0.00500
C816        C  0.91863712  0.73358874  0.60973213    -0.11300
C817        C  0.93592182  0.72857679  0.58556394    -0.06800
C818        C  0.95553544  0.75287486  0.58194151    -0.07500
C819        C  0.94720077  0.77162469  0.60568673    -0.11400
N820        N  0.93297343  0.75616041  0.39190122    -0.00500
C821        C  0.94727257  0.74624220  0.41656440    -0.11300
C822        C  0.97430105  0.76096839  0.42235989    -0.06800
C823        C  0.97621465  0.77732266  0.39575714    -0.07500
C824        C  0.95078702  0.77421425  0.37857342    -0.11400
C825        C  0.85426275  0.59420653  0.48423372     0.31100
C826        C  0.88100429  0.63215926  0.52226954     0.31100
C827        C  0.87783707  0.61321819  0.47213574    -0.05100
C828        C  0.83433861  0.61726300  0.49798660    -0.05900
C829        C  0.87004559  0.58001495  0.51086366    -0.05700
C830        C  0.89202790  0.63116619  0.49167951    -0.05100
C831        C  0.84784519  0.63527058  0.51838839    -0.05900
C832        C  0.88356414  0.59972103  0.53109266    -0.05700
C833        C  0.91283292  0.64564077  0.47729830    -0.31100
N834        N  0.90979451  0.63910550  0.44891705     0.15400
C835        C  0.88842660  0.61918268  0.44530090    -0.31100
H836        H  0.87938244  0.61212161  0.42463921     0.17300
C837        C  0.82742739  0.65450122  0.52789807    -0.30100
N838        N  0.80269620  0.65140371  0.51154878     0.14100
C839        C  0.80722822  0.62950353  0.49250970    -0.30100
C840        C  0.87858625  0.58787158  0.55806211    -0.30400
N841        N  0.86443591  0.56221493  0.55493678     0.14600
H842        H  0.87981255  0.59983443  0.57816050     0.17200
C843        C  0.85943537  0.55721126  0.52661071    -0.30400
H844        H  0.84360919  0.54157286  0.51845556     0.17200
H845        H  0.79314581  0.62517312  0.47398839     0.17200
H846        H  0.92619964  0.66319916  0.48591456     0.17300
H847        H  0.83117687  0.67101178  0.54416226     0.17200
C848        C  0.01781383  0.86830996  0.32822490     0.31100
C849        C  0.05013718  0.91383794  0.30853751     0.31100
C850        C  0.04117929  0.88000824  0.34873533    -0.05100
C851        C  0.03441849  0.86241373  0.30058393    -0.05900
C852        C  0.00050753  0.89542254  0.31978091    -0.05700
C853        C  0.05781514  0.90320450  0.33998595    -0.05100
C854        C  0.05117003  0.88554747  0.29063607    -0.05900
C855        C  0.01652558  0.91937182  0.30994225    -0.05700
C856        C  0.07963797  0.90593137  0.36175180    -0.31100
N857        N  0.07614100  0.88436956  0.38213455     0.15400
C858        C  0.05288988  0.86865524  0.37366301    -0.31100
H859        H  0.04692453  0.84785807  0.38313515     0.17300
C860        C  0.05769848  0.87962082  0.26220900    -0.30100
N861        N  0.04501027  0.85389510  0.25463838     0.14100
C862        C  0.02976228  0.84409414  0.27742868    -0.30100
C863        C  0.99584616  0.94066479  0.30285460    -0.30400
N864        N  0.96892699  0.92939902  0.30697565     0.14600
H865        H  0.99945595  0.96270071  0.29514933     0.17200
C866        C  0.97152633  0.90169210  0.31687184    -0.30400
H867        H  0.95359857  0.88701247  0.32088472     0.17200
H868        H  0.01493987  0.82572861  0.27651734     0.17200
H869        H  0.09782944  0.92087025  0.36168191     0.17300
H870        H  0.06975128  0.89363220  0.24784061     0.17200
C871        C  0.03277667  0.93419282  0.68796313     0.31100
C872        C  0.06949581  0.89598962  0.66357831     0.31100
C873        C  0.06069423  0.94808729  0.67476553    -0.05100
C874        C  0.04502726  0.91012954  0.70814252    -0.05900
C875        C  0.01956507  0.91626149  0.66265351    -0.05700
C876        C  0.08038697  0.92772170  0.66286716    -0.05100
C877        C  0.06465142  0.89165211  0.69602673    -0.05900
C878        C  0.03924947  0.89879779  0.64900366    -0.05700
C879        C  0.10794291  0.93760892  0.67072017    -0.31100
N880        N  0.10613778  0.96353587  0.68432648     0.15400
C881        C  0.07770160  0.97028271  0.68616971    -0.31100
H882        H  0.06994166  0.98791642  0.69922206     0.17300
C883        C  0.07508699  0.87306657  0.71757321    -0.30100
N884        N  0.06072115  0.87858057  0.74206351     0.14100
C885        C  0.04196371  0.90094436  0.73643511    -0.30100
C886        C  0.02412226  0.88024412  0.63095020    -0.30400
N887        N  0.99572858  0.88216430  0.63642657     0.14600
H888        H  0.03329487  0.86289287  0.61837008     0.17200
C889        C  0.99261423  0.90321565  0.65662945    -0.30400
H890        H  0.97287642  0.90657785  0.66827493     0.17200
H891        H  0.02654682  0.90919762  0.75156151     0.17200
H892        H  0.12728754  0.92416501  0.67146853     0.17300
H893        H  0.09094048  0.85585070  0.71525058     0.17200
C894        C  0.20605936  0.64653784  0.49913700     0.31100
C895        C  0.23398541  0.61011794  0.53867551     0.31100
C896        C  0.20770641  0.61448655  0.49002267    -0.05100
C897        C  0.23842740  0.65355494  0.50630028    -0.05900
C898        C  0.19238674  0.64230448  0.52818687    -0.05700
C899        C  0.22201711  0.59531332  0.51071596    -0.05100
C900        C  0.25246409  0.63473874  0.52577429    -0.05900
C901        C  0.20696346  0.62547190  0.54880497    -0.05700
C902        C  0.23458101  0.57385539  0.49494732    -0.31100
N903        N  0.22815692  0.57870757  0.46663419     0.15400
C904        C  0.21313130  0.60369464  0.46323457    -0.31100
H905        H  0.21030550  0.61533687  0.44280148     0.17300
C906        C  0.28113402  0.64320652  0.52764247    -0.30100
N907        N  0.28470389  0.66796138  0.51176319     0.14100
C908        C  0.25897178  0.67385610  0.49764087    -0.30100
C909        C  0.19207185  0.62801186  0.57399016    -0.30400
N910        N  0.16843669  0.64509232  0.56823884     0.14600
H911        H  0.19984087  0.62136507  0.59541021     0.17200
C912        C  0.16731412  0.65148405  0.53958586    -0.30400
H913        H  0.15252368  0.66715155  0.52933692     0.17200
H914        H  0.25540544  0.69164790  0.48231807     0.17200
H915        H  0.25079578  0.55843136  0.50301278     0.17300
H916        H  0.29816418  0.63273284  0.54058810     0.17200
N917        N  0.34284801  0.25366822  0.50849511    -0.00500
C918        C  0.34952315  0.24720439  0.53636956    -0.11300
C919        C  0.37145650  0.22673322  0.53849226    -0.06800
C920        C  0.37892629  0.22124025  0.51059312    -0.07500
C921        C  0.36119633  0.23802395  0.49275865    -0.11400
N922        N  0.32237471  0.48937598  0.36174008    -0.00500
C923        C  0.30963206  0.51450835  0.36910253    -0.11300
C924        C  0.29208790  0.50991454  0.39254450    -0.06800
C925        C  0.29283339  0.48051232  0.39941776    -0.07500
C926        C  0.31209737  0.46886193  0.38009207    -0.11400
N927        N  0.52271539  0.34554202  0.30026048    -0.00500
C928        C  0.54844896  0.35874707  0.29653154    -0.11300
C929        C  0.54559581  0.38152975  0.27664458    -0.06800
C930        C  0.51678973  0.38228079  0.26807658    -0.07500
C931        C  0.50336270  0.36013049  0.28317845    -0.11400
Zn932      Zn  0.30170075  0.25974463  0.32690290     1.49700
Zn933      Zn  0.34260364  0.30554737  0.33554403     1.49400
Zn934      Zn  0.34018704  0.28616226  0.27344273     1.49100
Zn935      Zn  0.29066353  0.32174152  0.29851973     1.49500
O936        O  0.31681075  0.29163400  0.30583018    -1.83000
O937        O  0.31779927  0.25731935  0.36678500    -0.73600
O938        O  0.37374927  0.32990723  0.32074985    -0.73500
O939        O  0.35422637  0.24458263  0.27832410    -0.73000
O940        O  0.36137397  0.27396727  0.35819076    -0.73700
O941        O  0.32773206  0.22458373  0.31354536    -0.73300
O942        O  0.37644669  0.30878199  0.27836959    -0.73800
O943        O  0.29316081  0.33674450  0.25746666    -0.73200
O944        O  0.32027588  0.33039874  0.36108805    -0.74000
O945        O  0.32472053  0.30761880  0.23647817    -0.73400
O946        O  0.30775190  0.35319683  0.32019154    -0.73800
O947        O  0.25179280  0.31599693  0.31858281    -0.73700
O948        O  0.26008194  0.27288988  0.34054167    -0.73500
C949        C  0.34437065  0.25966402  0.37393355     0.78300
C950        C  0.38647141  0.32630040  0.29721992     0.78700
C951        C  0.35008305  0.22430442  0.29717989     0.77700
C952        C  0.30853766  0.33048916  0.23582276     0.78100
C953        C  0.31083985  0.35278868  0.34751745     0.79200
C954        C  0.24478175  0.29640847  0.33710319     0.78300
Zn955      Zn  0.70826178  0.28044277  0.34195653     1.49700
Zn956      Zn  0.75066800  0.32376306  0.35414136     1.49400
Zn957      Zn  0.75624226  0.28592331  0.29457087     1.49100
Zn958      Zn  0.71209137  0.33678325  0.30073088     1.49500
O959        O  0.73266169  0.30628819  0.32095739    -1.83000
O960        O  0.72123171  0.27267112  0.38232069    -0.73600
O961        O  0.78806313  0.30476063  0.36074394    -0.73500
O962        O  0.73145999  0.24622163  0.28519507    -0.73000
O963        O  0.72655837  0.31968961  0.39010542    -0.73700
O964        O  0.70281486  0.24340165  0.32321179    -0.73300
O965        O  0.79567077  0.27928536  0.32040125    -0.73800
O966        O  0.71502800  0.33565289  0.25769273    -0.73200
O967        O  0.75932343  0.36482595  0.34673234    -0.74000
O968        O  0.75943001  0.31679542  0.25813968    -0.73400
O969        O  0.72833781  0.37560445  0.31046590    -0.73800
O970        O  0.67209377  0.33581783  0.31288413    -0.73700
O971        O  0.66906798  0.29766331  0.34327912    -0.73500
C972        C  0.71966714  0.29430317  0.39897649     0.78300
C973        C  0.80386676  0.28834927  0.34586605     0.78700
C974        C  0.71162020  0.23306179  0.29985223     0.77700
C975        C  0.73971098  0.33366824  0.24630849     0.78100
C976        C  0.74802119  0.38280608  0.32872053     0.79200
C977        C  0.65802669  0.31951449  0.32990644     0.78300
Zn978      Zn  0.33000187  0.74560358  0.34070290     1.49700
Zn979      Zn  0.30441986  0.68930605  0.30780498     1.49400
Zn980      Zn  0.36414733  0.71890522  0.28862337     1.49100
Zn981      Zn  0.36031777  0.68514818  0.34844482     1.49500
O982        O  0.33943716  0.71014469  0.32079427    -1.83000
O983        O  0.28696521  0.74269267  0.35248431    -0.73600
O984        O  0.30571956  0.68198591  0.26413041    -0.73500
O985        O  0.37702608  0.76191935  0.28862836    -0.73000
O986        O  0.26794768  0.70454643  0.32889527    -0.73700
O987        O  0.35072086  0.78153865  0.32308511    -0.73300
O988        O  0.35041393  0.69612280  0.25286257    -0.73800
O989        O  0.40130917  0.68086193  0.33948780    -0.73200
O990        O  0.30683056  0.64735492  0.32010964    -0.74000
O991        O  0.40230012  0.70074406  0.29592935    -0.73400
O992        O  0.34615611  0.64502361  0.34855510    -0.73800
O993        O  0.36154222  0.70007491  0.38777919    -0.73700
O994        O  0.35072915  0.74639835  0.37896549    -0.73500
C995        C  0.26599694  0.72460114  0.34797521     0.78300
C996        C  0.32760820  0.68091662  0.24755140     0.78700
C997        C  0.37188677  0.78310905  0.30564603     0.77700
C998        C  0.41476525  0.68717541  0.31684424     0.78100
C999        C  0.32506740  0.63278320  0.33545068     0.79200
C1000       C  0.36101525  0.72651117  0.39552645     0.78300
Zn1001     Zn  0.30795502  0.33891674  0.73017434     1.49700
Zn1002     Zn  0.32601684  0.27422589  0.70849868     1.49400
Zn1003     Zn  0.36403462  0.32942613  0.69363137     1.49100
Zn1004     Zn  0.36446059  0.30609550  0.75751310     1.49500
O1005       O  0.33984748  0.31185677  0.72313504    -1.83000
O1006       O  0.26999871  0.32534389  0.70764741    -0.73600
O1007       O  0.33789973  0.26976047  0.66887968    -0.73500
O1008       O  0.35783701  0.37191169  0.68898261    -0.73000
O1009       O  0.28101952  0.27998514  0.69400686    -0.73700
O1010       O  0.31671070  0.37760943  0.71177889    -0.73300
O1011       O  0.35478420  0.31277715  0.65548781    -0.73800
O1012       O  0.40277504  0.32416929  0.75065419    -0.73200
O1013       O  0.35379178  0.23947849  0.72600825    -0.74000
O1014       O  0.40615950  0.32565757  0.70285787    -0.73400
O1015       O  0.37860678  0.26273641  0.76075915    -0.73800
O1016       O  0.34962881  0.33116724  0.79167312    -0.73700
O1017       O  0.30922592  0.35189134  0.77329648    -0.73500
C1018       C  0.26371815  0.30238607  0.69291363     0.78300
C1019       C  0.34528854  0.28752650  0.64938405     0.78700
C1020       C  0.33731675  0.38794226  0.69711899     0.77700
C1021       C  0.41751829  0.32777596  0.72809812     0.78100
C1022       C  0.37506434  0.23997981  0.74498113     0.79200
C1023       C  0.32868520  0.34956127  0.79373049     0.78300
N1024       N  0.55514837  0.66376810  0.30970853    -0.00500
C1025       C  0.53142272  0.65002619  0.29973563    -0.11300
C1026       C  0.53891934  0.62916319  0.28038762    -0.06800
C1027       C  0.56858254  0.62947308  0.27809227    -0.07500
C1028       C  0.57779591  0.65171636  0.29631305    -0.11400
N1029       N  0.70911743  0.73325156  0.50403390    -0.00500
C1030       C  0.69437360  0.74616175  0.52498906    -0.11300
C1031       C  0.67608420  0.76726760  0.51365772    -0.06800
C1032       C  0.67920629  0.76726134  0.48417432    -0.07500
C1033       C  0.69968860  0.74578591  0.47898907    -0.11400
N1034       N  0.78504625  0.52117953  0.34364564    -0.00500
C1035       C  0.79250535  0.49471089  0.35435070    -0.11300
C1036       C  0.80721195  0.49732214  0.38083556    -0.06800
C1037       C  0.80807352  0.52684360  0.38693630    -0.07500
C1038       C  0.79413215  0.54067771  0.36359764    -0.11400
Zn1039     Zn  0.78068796  0.75074916  0.26964892     1.49700
Zn1040     Zn  0.78024141  0.70664879  0.32338478     1.49400
Zn1041     Zn  0.73333624  0.74812240  0.31846720     1.49100
Zn1042     Zn  0.73931285  0.69489593  0.28048751     1.49500
O1043       O  0.75885178  0.72757208  0.29517281    -1.83000
O1044       O  0.82187001  0.75598555  0.29509127    -0.73600
O1045       O  0.75911951  0.70273664  0.36020181    -0.73500
O1046       O  0.72502464  0.78732966  0.30316494    -0.73000
O1047       O  0.81486839  0.72622875  0.33296243    -0.73700
O1048       O  0.75290095  0.78976412  0.26444273    -0.73300
O1049       O  0.74930395  0.74992318  0.35808959    -0.73800
O1050       O  0.69866977  0.70350238  0.27764773    -0.73200
O1051       O  0.79167961  0.66854703  0.31009431    -0.74000
O1052       O  0.69521324  0.72733130  0.31900541    -0.73400
O1053       O  0.74529179  0.65947070  0.30623448    -0.73800
O1054       O  0.75245504  0.68563344  0.24243584    -0.73700
O1055       O  0.78197920  0.72266407  0.23127413    -0.73500
C1056       C  0.83026045  0.74446768  0.31985828     0.78300
C1057       C  0.75192638  0.72622337  0.37240580     0.78700
C1058       C  0.73262051  0.80037416  0.28027169     0.77700
C1059       C  0.68401359  0.71230330  0.29857134     0.78100
C1060       C  0.77072261  0.65142346  0.31402333     0.79200
C1061       C  0.76935167  0.69799506  0.22503097     0.78300
N1062       N  0.67700153  0.26788363  0.53017483    -0.00500
C1063       C  0.66287408  0.26548258  0.50418348    -0.11300
C1064       C  0.63468987  0.25491643  0.50783636    -0.06800
C1065       C  0.63181425  0.25120596  0.53735187    -0.07500
C1066       C  0.65812649  0.25894284  0.55027417    -0.11400
N1067       N  0.75878113  0.48855572  0.66362720    -0.00500
C1068       C  0.77179720  0.51171778  0.65111584    -0.11300
C1069       C  0.78638122  0.50259779  0.62678805    -0.06800
C1070       C  0.78165230  0.47294267  0.62421472    -0.07500
C1071       C  0.76408618  0.46542794  0.64676594    -0.11400
N1072       N  0.55915497  0.35172243  0.74650595    -0.00500
C1073       C  0.53384211  0.36331906  0.75466834    -0.11300
C1074       C  0.53892204  0.38655106  0.77292721    -0.06800
C1075       C  0.56846493  0.38938598  0.77607185    -0.07500
C1076       C  0.58020507  0.36790655  0.75940734    -0.11400
Zn1077     Zn  0.77848931  0.27588625  0.75160157     1.49700
Zn1078     Zn  0.71260742  0.28256716  0.72535074     1.49400
Zn1079     Zn  0.75310931  0.33217810  0.73140404     1.49100
Zn1080     Zn  0.76045293  0.28762685  0.68539978     1.49500
O1081       O  0.75131972  0.29192463  0.72534193    -1.83000
O1082       O  0.75546315  0.23261623  0.75539397    -0.73600
O1083       O  0.69274183  0.31398082  0.74395193    -0.73500
O1084       O  0.76049755  0.34521639  0.77220259    -0.73000
O1085       O  0.70920894  0.24582254  0.74542780    -0.73700
O1086       O  0.77415360  0.30303012  0.79176241    -0.73300
O1087       O  0.71482852  0.35038521  0.72114551    -0.73800
O1088       O  0.75787247  0.32734218  0.66791196    -0.73200
O1089       O  0.69452598  0.27704291  0.68553159    -0.74000
O1090       O  0.78321357  0.34326647  0.70552913    -0.73400
O1091       O  0.73352917  0.26198333  0.66331486    -0.73800
O1092       O  0.80078808  0.27728497  0.67974103    -0.73700
O1093       O  0.81831791  0.28607986  0.72398898    -0.73500
C1094       C  0.72766063  0.22659548  0.75335031     0.78300
C1095       C  0.69370449  0.34039957  0.73532148     0.78700
C1096       C  0.76673592  0.33027388  0.79480645     0.77700
C1097       C  0.77240914  0.34742117  0.68040787     0.78100
C1098       C  0.70623916  0.26540568  0.66390675     0.79200
C1099       C  0.82179621  0.28563023  0.69591101     0.78300
N1100       N  0.32315002  0.52970081  0.66967610    -0.00500
C1101       C  0.31942655  0.50464124  0.65526516    -0.11300
C1102       C  0.30170902  0.50924384  0.63072042    -0.06800
C1103       C  0.29417457  0.53896105  0.62977142    -0.07500
C1104       C  0.30806617  0.55040785  0.65456453    -0.11400
N1105       N  0.53616198  0.68094914  0.76323046    -0.00500
C1106       C  0.55855999  0.66515527  0.77415444    -0.11300
C1107       C  0.54871448  0.64299116  0.79174773    -0.06800
C1108       C  0.51889285  0.64486760  0.79137924    -0.07500
C1109       C  0.51191651  0.66888679  0.77395104    -0.11400
N1110       N  0.38816680  0.73494144  0.53071687    -0.00500
C1111       C  0.40560546  0.74438216  0.50975850    -0.11300
C1112       C  0.42824650  0.76018545  0.52134321    -0.06800
C1113       C  0.42465029  0.76119241  0.55071616    -0.07500
C1114       C  0.39950233  0.74537025  0.55589512    -0.11400
Zn1115     Zn  0.34462271  0.70421139  0.71844247     1.49700
Zn1116     Zn  0.28744990  0.70690297  0.74511890     1.49400
Zn1117     Zn  0.34270954  0.73932107  0.77347354     1.49100
Zn1118     Zn  0.31399315  0.76238111  0.71319202     1.49500
O1119       O  0.32112703  0.73031857  0.73881831    -1.83000
O1120       O  0.33614131  0.66399109  0.72939073    -0.73600
O1121       O  0.28933386  0.69243978  0.78706581    -0.73500
O1122       O  0.38324317  0.72359318  0.77149936    -0.73000
O1123       O  0.28983120  0.67123828  0.72075053    -0.73700
O1124       O  0.38565508  0.70943624  0.72627102    -0.73300
O1125       O  0.32628055  0.71633973  0.80820918    -0.73800
O1126       O  0.33456882  0.79866197  0.72898668    -0.73200
O1127       O  0.25137530  0.72527954  0.72685618    -0.74000
O1128       O  0.35055168  0.78322800  0.77274526    -0.73400
O1129       O  0.27131211  0.76056023  0.70013400    -0.73800
O1130       O  0.33468780  0.75601487  0.67652001    -0.73700
O1131       O  0.34006455  0.70820286  0.67616987    -0.73500
C1132       C  0.31227043  0.65557005  0.71841726     0.78300
C1133       C  0.30661474  0.69646259  0.80889948     0.78700
C1134       C  0.39772473  0.71399142  0.75063026     0.77700
C1135       C  0.35032329  0.80215717  0.75197825     0.78100
C1136       C  0.24997700  0.74358895  0.70571374     0.79200
C1137       C  0.34179790  0.73283862  0.66362012     0.78300
Zn1138     Zn  0.73228021  0.71913144  0.75099134     1.49700
Zn1139     Zn  0.75881335  0.74030214  0.69204870     1.49400
Zn1140     Zn  0.78100073  0.68063018  0.71933485     1.49100
Zn1141     Zn  0.71675948  0.68350271  0.69397138     1.49500
O1142       O  0.74734628  0.70600384  0.71430234    -1.83000
O1143       O  0.72091103  0.76378584  0.74737249    -0.73600
O1144       O  0.80032144  0.73637970  0.67683606    -0.73500
O1145       O  0.78466811  0.66806968  0.76154400    -0.73000
O1146       O  0.74149010  0.77930567  0.70690066    -0.73700
O1147       O  0.75281940  0.69542317  0.78475550    -0.73300
O1148       O  0.81594801  0.69405043  0.69560036    -0.73800
O1149       O  0.72864831  0.64346717  0.68277906    -0.73200
O1150       O  0.73744504  0.73798850  0.65530466    -0.74000
O1151       O  0.77333261  0.64237325  0.70105006    -0.73400
O1152       O  0.70452428  0.70279233  0.65762741    -0.73800
O1153       O  0.68193719  0.67860966  0.71699963    -0.73700
O1154       O  0.69283601  0.70341260  0.75650026    -0.73500
C1155       C  0.72423509  0.78361671  0.72771616     0.78300
C1156       C  0.81880382  0.71540977  0.67775775     0.78700
C1157       C  0.77039503  0.67356521  0.78421325     0.77700
C1158       C  0.75244822  0.63016903  0.68743648     0.78100
C1159       C  0.71641973  0.72374969  0.64434065     0.79200
C1160       C  0.67534351  0.68793781  0.74166507     0.78300
N1161       N  0.98876770  0.26139649  0.51681135    -0.35500
N1162       N  0.03711970  0.26787802  0.56301357    -0.56100
N1163       N  0.08032039  0.26891834  0.51609333    -0.35500
N1164       N  0.03277228  0.25738337  0.46986490    -0.56100
C1165       C  0.97299451  0.26133549  0.54182456     0.28100
C1166       C  0.97092458  0.25357240  0.49345679     0.28100
C1167       C  0.09765480  0.26301414  0.54025009     0.28100
C1168       C  0.09544794  0.26242422  0.49173087     0.28100
C1169       C  0.01323748  0.27387613  0.57931969     0.36700
C1170       C  0.06207219  0.27529651  0.57863629     0.36700
C1171       C  0.00734133  0.26002692  0.45349814     0.36700
C1172       C  0.05565953  0.26561706  0.45287455     0.36700
C1173       C  0.94474428  0.25392470  0.53384118    -0.20800
C1174       C  0.94375461  0.24779080  0.50439546    -0.20800
C1175       C  0.12278076  0.25007879  0.53085751    -0.20800
C1176       C  0.12222588  0.25147369  0.50079651    -0.20800
C1177       C  0.02338913  0.28518217  0.60547471    -0.21800
C1178       C  0.05359407  0.28660285  0.60477872    -0.21800
C1179       C  0.01450354  0.27077464  0.42653497    -0.21800
C1180       C  0.04448860  0.27359484  0.42579088    -0.21800
C1181       C  0.98245005  0.26904360  0.57151776    -0.17200
C1182       C  0.97748747  0.25434978  0.46232876    -0.17200
C1183       C  0.08641367  0.26723007  0.46157670    -0.17200
C1184       C  0.09227273  0.27083741  0.57016474    -0.17200
H1185       H  0.92630925  0.25352118  0.54777932     0.15700
H1186       H  0.92459600  0.24086474  0.49228826     0.15700
H1187       H  0.14028411  0.24118042  0.54439243     0.15700
H1188       H  0.13962637  0.24495690  0.48715873     0.15700
H1189       H  0.01031970  0.29226900  0.62317537     0.14000
H1190       H  0.06776656  0.29534373  0.62165164     0.14000
H1191       H  0.99926838  0.27821116  0.40994693     0.14000
H1192       H  0.05655121  0.28222098  0.40783728     0.14000
H1193       H  0.01011589  0.26848652  0.51554401     0.27300
H1194       H  0.06021974  0.27925323  0.51610288     0.27300
N1195       N  0.04866283  0.76418016  0.46767750    -0.35500
N1196       N  0.99689819  0.75674867  0.50665169    -0.56100
N1197       N  0.03695197  0.76532177  0.55873213    -0.35500
N1198       N  0.08923852  0.76649730  0.51930232    -0.56100
C1199       C  0.02668936  0.75914005  0.44747118     0.28100
C1200       C  0.07513315  0.76091425  0.45468192     0.28100
C1201       C  0.01152101  0.75845598  0.57246392     0.28100
C1202       C  0.05984988  0.76460270  0.57867184     0.28100
C1203       C  0.98258125  0.75931353  0.47992287     0.36700
C1204       C  0.97670808  0.75714398  0.52834071     0.36700
C1205       C  0.10877733  0.77124179  0.49770641     0.36700
C1206       C  0.10249008  0.77360292  0.54535379     0.36700
C1207       C  0.03978930  0.75246088  0.42191980    -0.20800
C1208       C  0.06959706  0.75365520  0.42608249    -0.20800
C1209       C  0.01871349  0.75351363  0.60149341    -0.20800
C1210       C  0.04851783  0.75710224  0.60524706    -0.20800
C1211       C  0.95314412  0.76139959  0.48514101    -0.21800
C1212       C  0.94960700  0.75986603  0.51488279    -0.21800
C1213       C  0.13415953  0.78185869  0.51032667    -0.21800
C1214       C  0.13051778  0.78287607  0.53998810    -0.21800
C1215       C  0.99514921  0.75994121  0.45082600    -0.17200
C1216       C  0.10429513  0.76618441  0.46679811    -0.17200
C1217       C  0.09059689  0.77099917  0.57416340    -0.17200
C1218       C  0.98190081  0.75635343  0.56008353    -0.17200
H1219       H  0.02877393  0.74572712  0.40255473     0.15700
H1220       H  0.08540107  0.74939415  0.40976678     0.15700
H1221       H  0.00407875  0.74725938  0.61838644     0.15700
H1222       H  0.06056446  0.75368485  0.62541238     0.15700
H1223       H  0.93570532  0.76486937  0.46934111     0.14000
H1224       H  0.92936116  0.76301094  0.52546693     0.14000
H1225       H  0.15288096  0.78956783  0.49913176     0.14000
H1226       H  0.14656585  0.79039281  0.55579180     0.14000
H1227       H  0.04559203  0.77149618  0.48854842     0.27300
H1228       H  0.03851014  0.77171600  0.53720301     0.27300
N1229       N  0.78426837  0.51225984  0.06322445    -0.35500
N1230       N  0.78917939  0.46086620  0.02304684    -0.56100
N1231       N  0.79442299  0.50368301  0.97162073    -0.35500
N1232       N  0.79608174  0.55423335  0.01225867    -0.56100
C1233       C  0.78191627  0.48968388  0.08317090     0.28100
C1234       C  0.78721550  0.53835529  0.07765389     0.28100
C1235       C  0.80056851  0.47718200  0.95900038     0.28100
C1236       C  0.80212160  0.52630126  0.95316436     0.28100
C1237       C  0.78042665  0.44674768  0.04806600     0.36700
C1238       C  0.78598069  0.44210535  0.99979871     0.36700
C1239       C  0.79426128  0.57382005  0.03464017     0.36700
C1240       C  0.79645324  0.56972652  0.98637505     0.36700
C1241       C  0.78300026  0.50203207  0.11047800    -0.20800
C1242       C  0.78625101  0.53199885  0.10709547    -0.20800
C1243       C  0.81257656  0.48340712  0.93241580    -0.20800
C1244       C  0.81393424  0.51364273  0.92915144    -0.20800
C1245       C  0.77144353  0.41891425  0.04020278    -0.21800
C1246       C  0.77429467  0.41629291  0.01038850    -0.21800
C1247       C  0.79384168  0.60174725  0.02260673    -0.21800
C1248       C  0.79436208  0.59917568  0.99278187    -0.21800
C1249       C  0.77941668  0.45823329  0.07787468    -0.17200
C1250       C  0.79166854  0.56780300  0.06572988    -0.17200
C1251       C  0.79955141  0.55809323  0.95712687    -0.17200
C1252       C  0.79386752  0.44744239  0.96934971    -0.17200
H1253       H  0.78272744  0.49066649  0.13109183     0.15700
H1254       H  0.78866565  0.54724521  0.12471946     0.15700
H1255       H  0.82018639  0.46771834  0.91700367     0.15700
H1256       H  0.82407353  0.52520723  0.91170859     0.15700
H1257       H  0.76244060  0.40243332  0.05434185     0.14000
H1258       H  0.76716343  0.39774318  0.99781481     0.14000
H1259       H  0.79190958  0.62213229  0.03404805     0.14000
H1260       H  0.79272609  0.61729390  0.97766177     0.14000
H1261       H  0.78366822  0.51012836  0.04089012     0.27300
H1262       H  0.78335970  0.50608527  0.99074927     0.27300
N1263       N  0.54147450  0.95884471  0.76923516    -0.35500
N1264       N  0.59180248  0.99954435  0.77008027    -0.56100
N1265       N  0.55073995  0.05243208  0.77073092    -0.35500
N1266       N  0.50067156  0.01161311  0.77718339    -0.56100
C1267       C  0.56379507  0.93874141  0.77101341     0.28100
C1268       C  0.51597059  0.94504227  0.77569347     0.28100
C1269       C  0.57755401  0.06582375  0.77481620     0.28100
C1270       C  0.52861267  0.07197651  0.77653162     0.28100
C1271       C  0.60588334  0.97353292  0.76454744     0.36700
C1272       C  0.61149455  0.02207333  0.76762536     0.36700
C1273       C  0.48113746  0.98883109  0.77651310     0.36700
C1274       C  0.48527263  0.03742767  0.77485509     0.36700
C1275       C  0.55201411  0.91216418  0.77922944    -0.20800
C1276       C  0.52227227  0.91571796  0.78075031    -0.20800
C1277       C  0.57194797  0.09425748  0.78333321    -0.20800
C1278       C  0.54196531  0.09782871  0.78464498    -0.20800
C1279       C  0.63430652  0.97981256  0.75851876    -0.21800
C1280       C  0.63741033  0.00966450  0.76012018    -0.21800
C1281       C  0.45340057  0.00043021  0.77380367    -0.21800
C1282       C  0.45597588  0.03050186  0.77226307    -0.21800
C1283       C  0.59461031  0.94378479  0.76642869    -0.17200
C1284       C  0.48708186  0.95758128  0.77799555    -0.17200
C1285       C  0.49677963  0.06721460  0.77593291    -0.17200
C1286       C  0.60707761  0.05360992  0.77155647    -0.17200
H1287       H  0.56371447  0.89236033  0.78502322     0.15700
H1288       H  0.50721465  0.89884065  0.78714075     0.15700
H1289       H  0.58786783  0.11069063  0.78924524     0.15700
H1290       H  0.53121975  0.11684270  0.79264365     0.15700
H1291       H  0.65107243  0.96456417  0.75275243     0.14000
H1292       H  0.65610004  0.02112006  0.75370335     0.14000
H1293       H  0.43317664  0.98841512  0.77232053     0.14000
H1294       H  0.43797247  0.04541675  0.76905775     0.14000
H1295       H  0.54314624  0.98060790  0.76288596     0.27300
H1296       H  0.54775522  0.03137837  0.76300800     0.27300
N1297       N  0.28561264  0.55875021  0.02898429    -0.35500
N1298       N  0.28913465  0.50604936  0.06832031    -0.56100
N1299       N  0.28705041  0.46650017  0.01688106    -0.35500
N1300       N  0.29191376  0.51907780  0.97756033    -0.56100
C1301       C  0.29356768  0.57171401  0.05480355     0.28100
C1302       C  0.28936971  0.57848569  0.00673703     0.28100
C1303       C  0.28812651  0.44629080  0.03924473     0.28100
C1304       C  0.29621032  0.45354627  0.99195426     0.28100
C1305       C  0.28622961  0.52822877  0.08801946     0.36700
C1306       C  0.28070874  0.48023140  0.08133595     0.36700
C1307       C  0.28328232  0.54470715  0.96395924     0.36700
C1308       C  0.29048678  0.49692532  0.95754942     0.36700
C1309       C  0.30274132  0.59991609  0.04849094    -0.20800
C1310       C  0.30029148  0.60392562  0.01865883    -0.20800
C1311       C  0.29794003  0.42017977  0.02822645    -0.20800
C1312       C  0.30346909  0.42483678  0.99907922    -0.20800
C1313       C  0.27554035  0.51622017  0.11298668    -0.21800
C1314       C  0.27229616  0.48647620  0.10911124    -0.21800
C1315       C  0.27575829  0.53829659  0.93545042    -0.21800
C1316       C  0.28062534  0.50874570  0.93136017    -0.21800
C1317       C  0.29197505  0.55935284  0.08395977    -0.17200
C1318       C  0.28366928  0.57415632  0.97595980    -0.17200
C1319       C  0.29672232  0.46599834  0.96260934    -0.17200
C1320       C  0.28107767  0.45078495  0.06942442    -0.17200
H1321       H  0.31107220  0.61585875  0.06374256     0.15700
H1322       H  0.30755492  0.62275556  0.00680597     0.15700
H1323       H  0.30149657  0.39992438  0.04013363     0.15700
H1324       H  0.31206607  0.40871917  0.98469783     0.15700
H1325       H  0.26854099  0.52821375  0.13127355     0.14000
H1326       H  0.26345205  0.47128048  0.12465483     0.14000
H1327       H  0.26694985  0.55334181  0.91928086     0.14000
H1328       H  0.27577425  0.49705572  0.91165156     0.14000
H1329       H  0.27616561  0.53822067  0.02665981     0.27300
H1330       H  0.27860102  0.48747329  0.01829981     0.27300
N1331       N  0.58250136  0.01379596  0.25116893    -0.35500
N1332       N  0.54256111  0.96415184  0.26407145    -0.56100
N1333       N  0.49213742  0.00829114  0.27106046    -0.35500
N1334       N  0.53424507  0.05735532  0.26596140    -0.56100
C1335       C  0.60159160  0.99059845  0.25301331     0.28100
C1336       C  0.59805562  0.03920051  0.25513408     0.28100
C1337       C  0.47898542  0.98232863  0.27883289     0.28100
C1338       C  0.47414903  0.03160965  0.27717639     0.28100
C1339       C  0.56609706  0.94875327  0.25400279     0.36700
C1340       C  0.51891973  0.94558620  0.26562879     0.36700
C1341       C  0.55675362  0.07613103  0.25963491     0.36700
C1342       C  0.50869872  0.07324690  0.26602460     0.36700
C1343       C  0.62872478  0.00152349  0.25952114    -0.20800
C1344       C  0.62703222  0.03164975  0.25920071    -0.20800
C1345       C  0.45228536  0.98962162  0.29007369    -0.20800
C1346       C  0.44936593  0.01994842  0.28908915    -0.20800
C1347       C  0.55697381  0.92034023  0.24905529    -0.21800
C1348       C  0.52773917  0.91854000  0.25578562    -0.21800
C1349       C  0.54516062  0.10395309  0.25621534    -0.21800
C1350       C  0.51533236  0.10175511  0.25888019    -0.21800
C1351       C  0.59579819  0.95964076  0.24960752    -0.17200
C1352       C  0.58753118  0.06911963  0.25612953    -0.17200
C1353       C  0.47939047  0.06311320  0.27278813    -0.17200
C1354       C  0.48941235  0.95208758  0.27546895    -0.17200
H1355       H  0.64738880  0.98865088  0.26610345     0.15700
H1356       H  0.64506413  0.04625587  0.26355427     0.15700
H1357       H  0.43644007  0.97459936  0.29860652     0.15700
H1358       H  0.43128445  0.03210137  0.29722372     0.15700
H1359       H  0.56984653  0.90275657  0.24065100     0.14000
H1360       H  0.51408633  0.89959930  0.25242952     0.14000
H1361       H  0.55679128  0.12370588  0.25068874     0.14000
H1362       H  0.49979689  0.11879391  0.25428417     0.14000
H1363       H  0.56042674  0.01258892  0.24586731     0.27300
H1364       H  0.51177345  0.00972410  0.26065614     0.27300
C1365       C  0.35431332  0.73515447  0.63463199     0.01000
C1366       C  0.35932257  0.76329216  0.62319610    -0.10900
C1367       C  0.37443017  0.76716123  0.59777701     0.03200
C1368       C  0.38503744  0.74259357  0.58349957     0.00900
C1369       C  0.37954243  0.71454877  0.59420204    -0.10900
C1370       C  0.36408042  0.71049709  0.61937591     0.03100
H1371       H  0.35178281  0.78250490  0.63427218     0.16100
H1372       H  0.38738878  0.69568939  0.58279011     0.16100
C1373       C  0.35861235  0.68075732  0.62842454     0.37700
C1374       C  0.37785845  0.79645533  0.58639142     0.37600
N1375       N  0.35431564  0.65672234  0.63505710    -0.42600
N1376       N  0.38040143  0.82000968  0.57741341    -0.42600
C1377       C  0.48279539  0.68061853  0.76829906     0.01000
C1378       C  0.47187046  0.68120046  0.73981145    -0.10900
C1379       C  0.44522495  0.69414152  0.73292103     0.03200
C1380       C  0.42835277  0.70558400  0.75537542     0.00900
C1381       C  0.43987512  0.70557450  0.78386550    -0.10900
C1382       C  0.46696358  0.69337060  0.79042467     0.03100
H1383       H  0.48414149  0.67139205  0.72284855     0.16100
H1384       H  0.42748070  0.71450803  0.80129749     0.16100
C1385       C  0.47811852  0.69477356  0.81989358     0.37700
C1386       C  0.43620018  0.69521308  0.70266002     0.37600
N1387       N  0.48668237  0.69631560  0.84362307    -0.42600
N1388       N  0.42920664  0.69607166  0.67838229    -0.42600
C1389       C  0.58882251  0.66979955  0.76671789     0.01000
C1390       C  0.60410032  0.69240550  0.78037267    -0.10900
C1391       C  0.63300100  0.69786879  0.77395902     0.03200
C1392       C  0.64647329  0.68097550  0.75263848     0.00900
C1393       C  0.63121150  0.65764341  0.73988490    -0.10900
C1394       C  0.60265754  0.65181024  0.74687579     0.03100
H1395       H  0.59338299  0.70573418  0.79614326     0.16100
H1396       H  0.64148751  0.64403191  0.72405733     0.16100
C1397       C  0.58814721  0.62759904  0.73287578     0.37700
C1398       C  0.64783490  0.72109428  0.78930749     0.37600
N1399       N  0.57715143  0.60794649  0.72142404    -0.42600
N1400       N  0.65980072  0.73947967  0.80186269    -0.42600
C1401       C  0.31117876  0.62931344  0.70049462     0.01000
C1402       C  0.28390275  0.61784281  0.69213202    -0.10900
C1403       C  0.28186897  0.59326517  0.67463444     0.03200
C1404       C  0.30742382  0.58050332  0.66482223     0.00900
C1405       C  0.33433126  0.59352596  0.67071138    -0.10900
C1406       C  0.33667902  0.61698896  0.68931628     0.03100
H1407       H  0.26417008  0.62749888  0.69996442     0.16100
H1408       H  0.35390442  0.58356860  0.66275359     0.16100
C1409       C  0.36568199  0.62709961  0.69673703     0.37700
C1410       C  0.25367616  0.58069085  0.66834419     0.37600
N1411       N  0.38901060  0.63488063  0.70259590    -0.42600
N1412       N  0.23108977  0.57068282  0.66306035    -0.42600
C1413       C  0.61102476  0.36551148  0.75406474     0.01000
C1414       C  0.62069527  0.37177501  0.72619034    -0.10900
C1415       C  0.64992130  0.36831958  0.72005448     0.03200
C1416       C  0.66914775  0.35834343  0.74215091     0.00900
C1417       C  0.66002081  0.35574224  0.77067365    -0.10900
C1418       C  0.63095770  0.35868255  0.77675824     0.03100
H1419       H  0.60529498  0.37839553  0.70914982     0.16100
H1420       H  0.67508717  0.34794909  0.78757082     0.16100
C1421       C  0.62205777  0.35148945  0.80569707     0.37700
C1422       C  0.65927161  0.37288089  0.69077497     0.37600
N1423       N  0.61558509  0.34520120  0.82897429    -0.42600
N1424       N  0.66689053  0.37680240  0.66738920    -0.42600
C1425       C  0.76237361  0.43563859  0.65695943     0.01000
C1426       C  0.78313122  0.42766973  0.67800084    -0.10900
C1427       C  0.78947019  0.39865494  0.68303018     0.03200
C1428       C  0.77234358  0.37707743  0.66904906     0.00900
C1429       C  0.75073011  0.38522455  0.64841955    -0.10900
C1430       C  0.74593113  0.41460321  0.64197949     0.03100
H1431       H  0.79630256  0.44428257  0.68862724     0.16100
H1432       H  0.73712196  0.36885802  0.63797822     0.16100
C1433       C  0.72396826  0.42283722  0.62048776     0.37700
C1434       C  0.81426172  0.39197307  0.70192774     0.37600
N1435       N  0.70632942  0.42953949  0.60333547    -0.42600
N1436       N  0.83416034  0.38668747  0.71694777    -0.42600
C1437       C  0.76759447  0.54214057  0.66035757     0.01000
C1438       C  0.73899523  0.55232572  0.66204868    -0.10900
C1439       C  0.73323025  0.58104068  0.67012822     0.03200
C1440       C  0.75658267  0.60004793  0.67704255     0.00900
C1441       C  0.78518241  0.58971952  0.67509155    -0.10900
C1442       C  0.79087385  0.56110060  0.66698651     0.03100
H1443       H  0.72104884  0.53776817  0.65677195     0.16100
H1444       H  0.80337663  0.60399284  0.68024665     0.16100
C1445       C  0.82075791  0.55170415  0.66725833     0.37700
C1446       C  0.70323557  0.58992347  0.67169168     0.37600
N1447       N  0.84491386  0.54474354  0.66793748    -0.42600
N1448       N  0.67917827  0.59697752  0.67285969    -0.42600
C1449       C  0.66527220  0.25689089  0.58132340     0.01000
C1450       C  0.68438141  0.23496601  0.59115713    -0.10900
C1451       C  0.69630011  0.23569885  0.61925107     0.03200
C1452       C  0.68861152  0.25853944  0.63784996     0.00900
C1453       C  0.66696381  0.27853799  0.62885386    -0.10900
C1454       C  0.65547146  0.27803953  0.60056304     0.03100
H1455       H  0.69107474  0.21813701  0.57641003     0.16100
H1456       H  0.66088296  0.29611525  0.64303218     0.16100
C1457       C  0.63565949  0.30084978  0.59098942     0.37700
C1458       C  0.71710957  0.21349102  0.62808655     0.37600
N1459       N  0.61987031  0.31914283  0.58315455    -0.42600
N1460       N  0.73382128  0.19573530  0.63516040    -0.42600
C1461       C  0.78935602  0.57191134  0.35964830     0.01000
C1462       C  0.76057596  0.58142410  0.35685985    -0.10900
C1463       C  0.75365747  0.60683662  0.34140492     0.03200
C1464       C  0.77623590  0.62390874  0.32989535     0.00900
C1465       C  0.80534427  0.61563722  0.33552747    -0.10900
C1466       C  0.81200763  0.58967272  0.35015592     0.03100
H1467       H  0.74325858  0.56754483  0.36450511     0.16100
H1468       H  0.82302699  0.62885126  0.32756098     0.16100
C1469       C  0.84197494  0.58053238  0.35311971     0.37700
C1470       C  0.72328092  0.61382872  0.33678603     0.37600
N1471       N  0.86593167  0.57308762  0.35554706    -0.42600
N1472       N  0.69892887  0.61931524  0.33302291    -0.42600
C1473       C  0.71372931  0.74043672  0.45179558     0.01000
C1474       C  0.70843014  0.71388991  0.43783740    -0.10900
C1475       C  0.72440110  0.70629043  0.41388712     0.03200
C1476       C  0.74408236  0.72670084  0.40260236     0.00900
C1477       C  0.75094721  0.75205879  0.41797368    -0.10900
C1478       C  0.73652003  0.75861390  0.44298642     0.03100
H1479       H  0.69221149  0.69895628  0.44596790     0.16100
H1480       H  0.76706472  0.76717833  0.40989209     0.16100
C1481       C  0.74652214  0.78322028  0.45978986     0.37700
C1482       C  0.71978796  0.67795248  0.40112740     0.37600
N1483       N  0.75541214  0.80263516  0.47321350    -0.42600
N1484       N  0.71610668  0.65505947  0.39129004    -0.42600
C1485       C  0.69823655  0.74008733  0.55570592     0.01000
C1486       C  0.70702093  0.76324001  0.57333340    -0.10900
C1487       C  0.71114752  0.75894851  0.60286888     0.03200
C1488       C  0.70703755  0.73075253  0.61477344     0.00900
C1489       C  0.69675239  0.70794788  0.59721107    -0.10900
C1490       C  0.69204687  0.71252863  0.56768079     0.03100
H1491       H  0.71092065  0.78465987  0.56388812     0.16100
H1492       H  0.69320750  0.68633623  0.60636366     0.16100
C1493       C  0.68003150  0.68906170  0.55047087     0.37700
C1494       C  0.71933933  0.78384339  0.62030729     0.37600
N1495       N  0.67015714  0.67016154  0.53695978    -0.42600
N1496       N  0.72585934  0.80378146  0.63426564    -0.42600
C1497       C  0.60585442  0.66595370  0.29605504     0.01000
C1498       C  0.61981777  0.67082176  0.32282183    -0.10900
C1499       C  0.64330204  0.68971488  0.32490714     0.03200
C1500       C  0.65433152  0.70198946  0.29943375     0.00900
C1501       C  0.63976695  0.69777380  0.27274650    -0.10900
C1502       C  0.61525705  0.68029691  0.27093038     0.03100
H1503       H  0.61166536  0.66062844  0.34225557     0.16100
H1504       H  0.64802326  0.70767501  0.25315965     0.16100
C1505       C  0.59964316  0.67862929  0.24342031     0.37700
C1506       C  0.65510095  0.69636456  0.35331691     0.37600
N1507       N  0.58726828  0.67768543  0.22128427    -0.42600
N1508       N  0.66357447  0.70225802  0.37632524    -0.42600
C1509       C  0.33683198  0.41897316  0.68852560     0.01000
C1510       C  0.34815922  0.42732543  0.66174149    -0.10900
C1511       C  0.34439665  0.45581973  0.65109105     0.03200
C1512       C  0.32849724  0.47597825  0.66712484     0.00900
C1513       C  0.31900724  0.46818854  0.69461948    -0.10900
C1514       C  0.32375878  0.44022608  0.70572977     0.03100
H1515       H  0.35905458  0.41138530  0.64867547     0.16100
H1516       H  0.30716304  0.48379447  0.70724432     0.16100
C1517       C  0.31625219  0.43462040  0.73530890     0.37700
C1518       C  0.35649074  0.46372284  0.62359771     0.37600
N1519       N  0.31078351  0.43108858  0.75934381    -0.42600
N1520       N  0.36618414  0.47014946  0.60158150    -0.42600
C1521       C  0.44835355  0.33489091  0.73191273     0.01000
C1522       C  0.46406066  0.32084884  0.75450080    -0.10900
C1523       C  0.49232580  0.32940424  0.76167920     0.03200
C1524       C  0.50516646  0.35224321  0.74600520     0.00900
C1525       C  0.48997721  0.36578455  0.72285797    -0.10900
C1526       C  0.46157227  0.35728421  0.71564869     0.03100
H1527       H  0.45391418  0.30367291  0.76707280     0.16100
H1528       H  0.50003308  0.38353900  0.71103222     0.16100
C1529       C  0.44582756  0.37325403  0.69305910     0.37700
C1530       C  0.50718127  0.31540609  0.78604435     0.37600
N1531       N  0.43309319  0.38608421  0.67507084    -0.42600
N1532       N  0.51886332  0.30419433  0.80570814    -0.42600
C1533       C  0.37413241  0.73388431  0.42376950     0.01000
C1534       C  0.39609078  0.71527931  0.43495909    -0.10900
C1535       C  0.40836244  0.71968107  0.46234522     0.03200
C1536       C  0.39806394  0.74254645  0.47908734     0.00900
C1537       C  0.37770288  0.76240890  0.46749374    -0.10900
C1538       C  0.36600451  0.75865456  0.43964479     0.03100
H1539       H  0.40362382  0.69706228  0.42234852     0.16100
H1540       H  0.37035954  0.78034551  0.48060287     0.16100
C1541       C  0.34519475  0.77992179  0.42867116     0.37700
C1542       C  0.43099521  0.70017082  0.47285594     0.37600
N1543       N  0.32855444  0.79713168  0.42012450    -0.42600
N1544       N  0.44925296  0.68439803  0.48076392    -0.42600
C1545       C  0.44525560  0.67834332  0.31410170     0.01000
C1546       C  0.45940192  0.68709824  0.28886644    -0.10900
C1547       C  0.48744108  0.67791532  0.28378255     0.03200
C1548       C  0.50195435  0.66002895  0.30438716     0.00900
C1549       C  0.48865575  0.65191506  0.32999891    -0.10900
C1550       C  0.46031578  0.66069737  0.33505660     0.03100
H1551       H  0.44847333  0.70086832  0.27268818     0.16100
H1552       H  0.50033715  0.63832958  0.34583129     0.16100
C1553       C  0.44746810  0.65067842  0.36155918     0.37700
C1554       C  0.50081203  0.68723487  0.25731285     0.37600
N1555       N  0.43726196  0.64248802  0.38277816    -0.42600
N1556       N  0.51137062  0.69483327  0.23607467    -0.42600
C1557       C  0.67663014  0.27276797  0.47658918     0.01000
C1558       C  0.70331976  0.25964983  0.47078240    -0.10900
C1559       C  0.71868857  0.26779520  0.44639887     0.03200
C1560       C  0.70738010  0.28953782  0.42748759     0.00900
C1561       C  0.68096861  0.30311253  0.43347789    -0.10900
C1562       C  0.66542455  0.29475683  0.45781059     0.03100
H1563       H  0.71214359  0.24292733  0.48533935     0.16100
H1564       H  0.67195620  0.31942332  0.41853562     0.16100
C1565       C  0.63838158  0.30931685  0.46330646     0.37700
C1566       C  0.74611647  0.25378084  0.44121017     0.37600
N1567       N  0.61668731  0.32094459  0.46774492    -0.42600
N1568       N  0.76814385  0.24272792  0.43693432    -0.42600
C1569       C  0.75770436  0.41280171  0.32992522     0.01000
C1570       C  0.78692028  0.41883097  0.32474160    -0.10900
C1571       C  0.79841118  0.44627673  0.33101418     0.03200
C1572       C  0.78054412  0.46739076  0.34322097     0.00900
C1573       C  0.75112448  0.46154281  0.34740591    -0.10900
C1574       C  0.73939265  0.43452550  0.34034104     0.03100
H1575       H  0.80085626  0.40183488  0.31666490     0.16100
H1576       H  0.73764598  0.47741345  0.35772681     0.16100
C1577       C  0.70920782  0.42884097  0.34605190     0.37700
C1578       C  0.82854641  0.45213734  0.32549899     0.37600
N1579       N  0.68503801  0.42425118  0.35055791    -0.42600
N1580       N  0.85265992  0.45694840  0.32095766    -0.42600
C1581       C  0.57534298  0.34768700  0.30971582     0.01000
C1582       C  0.58309922  0.31894129  0.30339019    -0.10900
C1583       C  0.60848585  0.30700926  0.31510909     0.03200
C1584       C  0.62738532  0.32499894  0.33125067     0.00900
C1585       C  0.61863097  0.35284067  0.33967073    -0.10900
C1586       C  0.59204896  0.36398720  0.32971416     0.03100
H1587       H  0.56964373  0.30604044  0.28874888     0.16100
H1588       H  0.63323904  0.36635931  0.35262019     0.16100
C1589       C  0.58231416  0.39159417  0.34065366     0.37700
C1590       C  0.61580374  0.27716503  0.30841608     0.37600
N1591       N  0.57459208  0.41347027  0.35012280    -0.42600
N1592       N  0.62142782  0.25312366  0.30344980    -0.42600
C1593       C  0.47219035  0.35606291  0.28450175     0.01000
C1594       C  0.45877307  0.36334820  0.31013592    -0.10900
C1595       C  0.42977456  0.35631986  0.31406676     0.03200
C1596       C  0.41428155  0.34095463  0.29208803     0.00900
C1597       C  0.42735113  0.33624500  0.26539699    -0.10900
C1598       C  0.45616943  0.34374658  0.26144833     0.03100
H1599       H  0.47129061  0.37378143  0.32741214     0.16100
H1600       H  0.41557919  0.32527112  0.24798174     0.16100
C1601       C  0.46917775  0.33658931  0.23438247     0.37700
C1602       C  0.41718096  0.36437265  0.34113290     0.37600
N1603       N  0.47920780  0.33040429  0.21260974    -0.42600
N1604       N  0.40714551  0.37102386  0.36277888    -0.42600
C1605       C  0.32179413  0.60101598  0.33844031     0.01000
C1606       C  0.29387497  0.58885258  0.33689057    -0.10900
C1607       C  0.28963297  0.55955248  0.34416684     0.03200
C1608       C  0.31350286  0.54252797  0.35393609     0.00900
C1609       C  0.34164985  0.55360351  0.35207499    -0.10900
C1610       C  0.34604671  0.58263747  0.34402495     0.03100
H1611       H  0.27526021  0.60243415  0.33111381     0.16100
H1612       H  0.36011263  0.54004303  0.35844829     0.16100
C1613       C  0.37557072  0.59281394  0.34147638     0.37700
C1614       C  0.26074972  0.54746187  0.34143265     0.37600
N1615       N  0.39922578  0.60081103  0.33911083    -0.42600
N1616       N  0.23760905  0.53776433  0.33906505    -0.42600
C1617       C  0.31227229  0.43833907  0.37358249     0.01000
C1618       C  0.29265785  0.42964992  0.35189321    -0.10900
C1619       C  0.28741329  0.40043335  0.34783749     0.03200
C1620       C  0.30578357  0.37988715  0.36198306     0.00900
C1621       C  0.32495155  0.38841601  0.38443719    -0.10900
C1622       C  0.32763000  0.41791572  0.39094307     0.03100
H1623       H  0.27961428  0.44576704  0.33996439     0.16100
H1624       H  0.33888592  0.37250476  0.39550757     0.16100
C1625       C  0.34687604  0.42697078  0.41436974     0.37700
C1626       C  0.26337104  0.39201792  0.32885444     0.37600
N1627       N  0.36222894  0.43445153  0.43313119    -0.42600
N1628       N  0.24390689  0.38529609  0.31398571    -0.42600
C1629       C  0.33925437  0.26278784  0.56114273     0.01000
C1630       C  0.32497056  0.24588566  0.58155292    -0.10900
C1631       C  0.32618396  0.25351039  0.61052231     0.03200
C1632       C  0.34182865  0.27891278  0.61904018     0.00900
C1633       C  0.35306583  0.29751838  0.59778792    -0.10900
C1634       C  0.35186973  0.28971432  0.56885176     0.03100
H1635       H  0.31519285  0.22523659  0.57519456     0.16100
H1636       H  0.36432764  0.31745706  0.60386627     0.16100
C1637       C  0.36837683  0.30714558  0.54891768     0.37700
C1638       C  0.31123090  0.23463504  0.63051488     0.37600
N1639       N  0.38230834  0.32146335  0.53387336    -0.42600
N1640       N  0.29903354  0.21942768  0.64625455    -0.42600
C1641       C  0.36252706  0.23971286  0.46140003     0.01000
C1642       C  0.34541599  0.22019973  0.44531352    -0.10900
C1643       C  0.34114024  0.22458377  0.41563540     0.03200
C1644       C  0.35447344  0.24871320  0.40213873     0.00900
C1645       C  0.37408913  0.26618681  0.41784248    -0.10900
C1646       C  0.37794453  0.26212088  0.44751044     0.03100
H1647       H  0.33405686  0.20265138  0.45622532     0.16100
H1648       H  0.38438732  0.28474044  0.40747101     0.16100
C1649       C  0.39583389  0.28287210  0.46308111     0.37700
C1650       C  0.32207757  0.20493972  0.39983581     0.37600
N1651       N  0.40998156  0.30041501  0.47454059    -0.42600
N1652       N  0.30675938  0.18927666  0.38715154    -0.42600
C1653       C  0.36194925  0.71816936  0.52607075     0.01000
C1654       C  0.33508699  0.73237446  0.52320358    -0.10900
C1655       C  0.30949256  0.71653286  0.51719911     0.03200
C1656       C  0.31066466  0.68582994  0.51347865     0.00900
C1657       C  0.33790510  0.67195960  0.51579020    -0.10900
C1658       C  0.36325679  0.68776806  0.52227504     0.03100
H1659       H  0.33418980  0.75585651  0.52596135     0.16100
H1660       H  0.33924954  0.64847339  0.51331777     0.16100
C1661       C  0.39030243  0.67223977  0.52641339     0.37700
C1662       C  0.28234883  0.73218404  0.51670314     0.37600
N1663       N  0.41190639  0.65971069  0.53024835    -0.42600
N1664       N  0.26065375  0.74491706  0.51638375    -0.42600
C1665       C  0.24885085  0.59141522  0.56273815     0.01000
C1666       C  0.24034522  0.56223745  0.56754408    -0.10900
C1667       C  0.25268584  0.54544675  0.59063451     0.03200
C1668       C  0.27718851  0.55614346  0.60673447     0.00900
C1669       C  0.28507603  0.58537680  0.60174698    -0.10900
C1670       C  0.26852734  0.60360213  0.58344013     0.03100
H1671       H  0.22258415  0.55320525  0.55459575     0.16100
H1672       H  0.30334377  0.59499492  0.61326349     0.16100
C1673       C  0.27007745  0.63452588  0.58932098     0.37700
C1674       C  0.23748382  0.51928525  0.59897699     0.37600
N1675       N  0.27167655  0.65909110  0.59484655    -0.42600
N1676       N  0.22445041  0.49871149  0.60546526    -0.42600
C1677       C  0.24270347  0.56504821  0.44402027     0.01000
C1678       C  0.27187856  0.57181110  0.44011858    -0.10900
C1679       C  0.28824237  0.55517534  0.42169506     0.03200
C1680       C  0.27481681  0.53176566  0.40691246     0.00900
C1681       C  0.24494029  0.52672836  0.40908756    -0.10900
C1682       C  0.22879991  0.54321868  0.42782867     0.03100
H1683       H  0.28211885  0.58885312  0.45297829     0.16100
H1684       H  0.23468713  0.50883871  0.39744552     0.16100
C1685       C  0.19864648  0.53622284  0.43187207     0.37700
C1686       C  0.31916397  0.56030567  0.42127018     0.37600
N1687       N  0.17446979  0.53064268  0.43525110    -0.42600
N1688       N  0.34393964  0.56449690  0.42132945    -0.42600
C1689       C  0.77826154  0.67133318  0.51112974     0.01000
C1690       C  0.78266195  0.70066514  0.51925058    -0.10900
C1691       C  0.75993781  0.72090631  0.51795724     0.03200
C1692       C  0.73232776  0.71234492  0.50758126     0.00900
C1693       C  0.72758572  0.68322846  0.49973466    -0.10900
C1694       C  0.74992590  0.66253799  0.50214859     0.03100
H1695       H  0.80402702  0.70817068  0.52609227     0.16100
H1696       H  0.70615542  0.67661185  0.49209161     0.16100
C1697       C  0.74265890  0.63241361  0.49644432     0.37700
C1698       C  0.76554911  0.75054663  0.52680301     0.37600
N1699       N  0.73669496  0.60828457  0.49187429    -0.42600
N1700       N  0.77011515  0.77425127  0.53413493    -0.42600
C1701       C  0.84160214  0.57227919  0.46205867     0.01000
C1702       C  0.81145040  0.56975651  0.45694418    -0.10900
C1703       C  0.80002360  0.55503122  0.43276279     0.03200
C1704       C  0.81875251  0.54046190  0.41419305     0.00900
C1705       C  0.84835625  0.53887297  0.42169952    -0.10900
C1706       C  0.85986699  0.55426490  0.44549749     0.03100
H1707       H  0.79645398  0.57863167  0.47193532     0.16100
H1708       H  0.86269964  0.52641302  0.40830577     0.16100
C1709       C  0.89062635  0.55158310  0.45191756     0.37700
C1710       C  0.76895006  0.55497102  0.42779964     0.37600
N1711       N  0.91530980  0.54957249  0.45691641    -0.42600
N1712       N  0.74400311  0.55522158  0.42409275    -0.42600
C1713       C  0.84611990  0.54998249  0.57601844     0.01000
C1714       C  0.81707206  0.55910450  0.57627338    -0.10900
C1715       C  0.79705087  0.54394671  0.59275643     0.03200
C1716       C  0.80646276  0.51971753  0.60948740     0.00900
C1717       C  0.83576219  0.51131937  0.60981293    -0.10900
C1718       C  0.85558417  0.52617320  0.59295037     0.03100
H1719       H  0.80995521  0.57718312  0.56241959     0.16100
H1720       H  0.84321823  0.49329527  0.62333353     0.16100
C1721       C  0.88521988  0.51613258  0.59221043     0.37700
C1722       C  0.76689599  0.55251645  0.59088333     0.37600
N1723       N  0.90900173  0.50813092  0.59142094    -0.42600
N1724       N  0.74270244  0.55930328  0.58937351    -0.42600
C1725       C  0.90478263  0.74857672  0.37857315     0.01000
C1726       C  0.90346867  0.72805668  0.35615269    -0.10900
C1727       C  0.88073117  0.72852044  0.33496146     0.03200
C1728       C  0.85841207  0.74982271  0.33563803     0.00900
C1729       C  0.85825125  0.76827681  0.35982865    -0.10900
C1730       C  0.88097094  0.76776350  0.38101742     0.03100
H1731       H  0.92124107  0.71277408  0.35423381     0.16100
H1732       H  0.83994603  0.78278744  0.36251737     0.16100
C1733       C  0.88008858  0.78786755  0.40477911     0.37700
C1734       C  0.88038187  0.70640132  0.31291536     0.37600
N1735       N  0.87926876  0.80385431  0.42397138    -0.42600
N1736       N  0.87997815  0.68855216  0.29535512    -0.42600
C1737       C  0.93947057  0.71741880  0.42730076     0.01000
C1738       C  0.90975556  0.71302733  0.43122492    -0.10900
C1739       C  0.89790491  0.68539557  0.42824563     0.03200
C1740       C  0.91652985  0.66117073  0.42880794     0.00900
C1741       C  0.94593174  0.66506563  0.42405879    -0.10900
C1742       C  0.95753081  0.69301746  0.42247726     0.03100
H1743       H  0.89540673  0.73157253  0.43364312     0.16100
H1744       H  0.96013520  0.64615354  0.42427069     0.16100
C1745       C  0.98759066  0.69510067  0.41506335     0.37700
C1746       C  0.86679319  0.68171302  0.42864535     0.37600
N1747       N  0.01169877  0.69441952  0.40883415    -0.42600
N1748       N  0.84185869  0.67860693  0.42869240    -0.42600
C1749       C  0.99687662  0.79890807  0.38630533     0.01000
C1750       C  0.98774948  0.82727055  0.39183040    -0.10900
C1751       C  0.98923332  0.84902499  0.37062332     0.03200
C1752       C  0.00330239  0.84344250  0.34412811     0.00900
C1753       C  0.01465744  0.81536271  0.34007540    -0.10900
C1754       C  0.01152668  0.79332508  0.36051158     0.03100
H1755       H  0.97598386  0.83151239  0.41139780     0.16100
H1756       H  0.02791166  0.81054136  0.32189657     0.16100
C1757       C  0.02225513  0.76481741  0.35310284     0.37700
C1758       C  0.97904878  0.87754155  0.37856609     0.37600
N1759       N  0.03162815  0.74241535  0.34665869    -0.42600
N1760       N  0.97084400  0.90015430  0.38570104    -0.42600
C1761       C  0.89149451  0.71770954  0.61866691     0.01000
C1762       C  0.86496707  0.73119609  0.61088864    -0.10900
C1763       C  0.84105845  0.73009608  0.62923845     0.03200
C1764       C  0.84300641  0.71482234  0.65621024     0.00900
C1765       C  0.86791724  0.69740526  0.66153051    -0.10900
C1766       C  0.89194871  0.69876201  0.64313125     0.03100
H1767       H  0.86396784  0.74547258  0.59196472     0.16100
H1768       H  0.86949905  0.68414540  0.68111590     0.16100
C1769       C  0.91803903  0.68318791  0.65177674     0.37700
C1770       C  0.81501401  0.74541796  0.61981890     0.37600
N1771       N  0.93881002  0.67062372  0.65912592    -0.42600
N1772       N  0.79411654  0.75759969  0.61214541    -0.42600
C1773       C  0.92809931  0.70431351  0.56559384     0.01000
C1774       C  0.90557206  0.70972075  0.54547912    -0.10900
C1775       C  0.89127778  0.68711551  0.53091787     0.03200
C1776       C  0.89656969  0.65724731  0.53884236     0.00900
C1777       C  0.91955224  0.65171416  0.55903566    -0.10900
C1778       C  0.93554489  0.67489460  0.57189284     0.03100
H1779       H  0.89797658  0.73189521  0.54194431     0.16100
H1780       H  0.92567960  0.62937139  0.56419972     0.16100
C1781       C  0.95971839  0.66810895  0.59132217     0.37700
C1782       C  0.87159005  0.69612637  0.50762093     0.37600
N1783       N  0.97941340  0.66268757  0.60655920    -0.42600
N1784       N  0.85578456  0.70434091  0.48938823    -0.42600
C1785       C  0.95861284  0.80143463  0.61259288     0.01000
C1786       C  0.96291622  0.80864448  0.64199696    -0.10900
C1787       C  0.97017848  0.83706105  0.65047162     0.03200
C1788       C  0.97663008  0.85829602  0.62938013     0.00900
C1789       C  0.97180968  0.85158255  0.60011500    -0.10900
C1790       C  0.96177115  0.82394286  0.59161599     0.03100
H1791       H  0.96047773  0.79204565  0.65865312     0.16100
H1792       H  0.97656151  0.86801715  0.58381360     0.16100
C1793       C  0.95345799  0.82058826  0.56156687     0.37700
C1794       C  0.97157668  0.84374664  0.68093697     0.37600
N1795       N  0.94662551  0.81984691  0.53729383    -0.42600
N1796       N  0.97244460  0.84913958  0.70537645    -0.42600
C1797       C  0.17322780  0.74399746  0.64867641     0.01000
C1798       C  0.20012373  0.75338472  0.63848223    -0.10900
C1799       C  0.22522653  0.75298710  0.65631919     0.03200
C1800       C  0.22387994  0.74317063  0.68553063     0.00900
C1801       C  0.19767788  0.73046167  0.69453190    -0.10900
C1802       C  0.17255049  0.73075769  0.67636594     0.03100
H1803       H  0.20098897  0.76392417  0.61737794     0.16100
H1804       H  0.19640360  0.72137388  0.71623823     0.16100
C1805       C  0.14586343  0.71911379  0.68727335     0.37700
C1806       C  0.25169132  0.76373176  0.64393570     0.37600
N1807       N  0.12452070  0.70966403  0.69610631    -0.42600
N1808       N  0.27275096  0.77243876  0.63382051    -0.42600
C1809       C  0.16039209  0.66828529  0.58629845     0.01000
C1810       C  0.13240382  0.66847879  0.59733338    -0.10900
C1811       C  0.11979487  0.69497975  0.60493276     0.03200
C1812       C  0.13435189  0.72119445  0.59840654     0.00900
C1813       C  0.16149360  0.72073253  0.58609231    -0.10900
C1814       C  0.17580141  0.69473784  0.58310667     0.03100
H1815       H  0.12036105  0.64821102  0.59915470     0.16100
H1816       H  0.17270912  0.74105736  0.58144736     0.16100
C1817       C  0.20518103  0.69588800  0.57308754     0.37700
C1818       C  0.09231657  0.69477390  0.61913091     0.37600
N1819       N  0.22863351  0.69748058  0.56493528    -0.42600
N1820       N  0.07032764  0.69417916  0.63061497    -0.42600
C1821       C  0.10605235  0.82204260  0.62060305     0.01000
C1822       C  0.08255703  0.81881007  0.63809362    -0.10900
C1823       C  0.07283450  0.84162248  0.65410803     0.03200
C1824       C  0.08489136  0.87020104  0.65056316     0.00900
C1825       C  0.10775702  0.87395815  0.63133320    -0.10900
C1826       C  0.11891056  0.84971983  0.61692065     0.03100
H1827       H  0.07417011  0.79714761  0.64219109     0.16100
H1828       H  0.11680168  0.89544023  0.62746720     0.16100
C1829       C  0.14381085  0.85318257  0.59900676     0.37700
C1830       C  0.05005206  0.83398122  0.67367479     0.37600
N1831       N  0.16375234  0.85581612  0.58453310    -0.42600
N1832       N  0.03267167  0.82645141  0.68970178    -0.42600
C1833       C  0.18997293  0.73464806  0.40227092     0.01000
C1834       C  0.21832586  0.73799308  0.41374772    -0.10900
C1835       C  0.24286556  0.73337034  0.39686392     0.03200
C1836       C  0.23982369  0.72589034  0.36715936     0.00900
C1837       C  0.21159596  0.71900356  0.35665832    -0.10900
C1838       C  0.18697738  0.72308662  0.37398697     0.03100
H1839       H  0.22147261  0.74676926  0.43519640     0.16100
H1840       H  0.20855277  0.71176280  0.33451575     0.16100
C1841       C  0.15845364  0.71713584  0.36184008     0.37700
C1842       C  0.27103005  0.73604731  0.41100675     0.37600
N1843       N  0.13547230  0.71231384  0.35228824    -0.42600
N1844       N  0.29346457  0.73761596  0.42276783    -0.42600
C1845       C  0.18959286  0.67080597  0.48197711     0.01000
C1846       C  0.19527038  0.69969610  0.49095023    -0.10900
C1847       C  0.18146473  0.72375637  0.47808671     0.03200
C1848       C  0.15896394  0.71969366  0.45734700     0.00900
C1849       C  0.15134892  0.69104795  0.44950004    -0.10900
C1850       C  0.16607559  0.66662505  0.46182912     0.03100
H1851       H  0.21132914  0.70385662  0.50793302     0.16100
H1852       H  0.13451211  0.68780547  0.43293975     0.16100
C1853       C  0.15562191  0.63803268  0.45395917     0.37700
C1854       C  0.19368466  0.75228568  0.48381190     0.37600
N1855       N  0.14678637  0.61531269  0.44730201    -0.42600
N1856       N  0.20439309  0.77487953  0.48755253    -0.42600
C1857       C  0.09635089  0.87201686  0.40337963     0.01000
C1858       C  0.12552695  0.86850367  0.39665764    -0.10900
C1859       C  0.14135521  0.84453690  0.40808658     0.03200
C1860       C  0.12673837  0.82156948  0.42277872     0.00900
C1861       C  0.09998495  0.82897180  0.43456309    -0.10900
C1862       C  0.08553222  0.85466866  0.42620911     0.03100
H1863       H  0.13556917  0.88357581  0.38170152     0.16100
H1864       H  0.08924823  0.81481463  0.44937092     0.16100
C1865       C  0.05750256  0.86047251  0.43820438     0.37700
C1866       C  0.17254334  0.84677386  0.40848062     0.37600
N1867       N  0.03492811  0.86480610  0.44763326    -0.42600
N1868       N  0.19747174  0.84996978  0.40948000    -0.42600
C1869       C  0.77766504  0.16649035  0.12348889     0.01000
C1870       C  0.78826004  0.13840164  0.11801596    -0.10900
C1871       C  0.79058432  0.12872940  0.08966706     0.03200
C1872       C  0.78093268  0.14689044  0.06648358     0.00900
C1873       C  0.76701386  0.17330010  0.07214066    -0.10900
C1874       C  0.76541289  0.18333012  0.10045168     0.03100
H1875       H  0.79789412  0.12535286  0.13555641     0.16100
H1876       H  0.75852467  0.18668218  0.05432909     0.16100
C1877       C  0.75265063  0.21163638  0.10515813     0.37700
C1878       C  0.80602263  0.10179324  0.08508706     0.37600
N1879       N  0.74252510  0.23435845  0.10896303    -0.42600
N1880       N  0.81864637  0.08027094  0.08184868    -0.42600
C1881       C  0.88976381  0.97082978  0.28149645     0.01000
C1882       C  0.89769375  0.96825183  0.31094827    -0.10900
C1883       C  0.92376770  0.95471323  0.31966094     0.03200
C1884       C  0.94186020  0.94286877  0.29877940     0.00900
C1885       C  0.93299200  0.94350310  0.26954529    -0.10900
C1886       C  0.90720425  0.95750576  0.26071950     0.03100
H1887       H  0.88467704  0.97891153  0.32691019     0.16100
H1888       H  0.94679219  0.93387450  0.25360383     0.16100
C1889       C  0.90020089  0.95993918  0.23010642     0.37700
C1890       C  0.93271968  0.95549729  0.34978538     0.37600
N1891       N  0.89467939  0.96198842  0.20556654    -0.42600
N1892       N  0.93969783  0.95677563  0.37400404    -0.42600
C1893       C  0.87006884  0.06456773  0.23523093     0.01000
C1894       C  0.87627933  0.08525605  0.25681936    -0.10900
C1895       C  0.88628261  0.11287329  0.24969592     0.03200
C1896       C  0.88443699  0.12208048  0.22074522     0.00900
C1897       C  0.88060534  0.10132182  0.19888747    -0.10900
C1898       C  0.87466900  0.07218412  0.20600040     0.03100
H1899       H  0.87380293  0.07968836  0.27948577     0.16100
H1900       H  0.87993577  0.10836574  0.17636503     0.16100
C1901       C  0.87458856  0.05105886  0.18310564     0.37700
C1902       C  0.89446038  0.13283121  0.27256084     0.37600
N1903       N  0.87544264  0.03475528  0.16417454    -0.42600
N1904       N  0.90153576  0.14874460  0.29073591    -0.42600
C1905       C  0.07017243  0.93689711  0.29606077     0.01000
C1906       C  0.05916703  0.95872829  0.27699409    -0.10900
C1907       C  0.07745609  0.97922522  0.26422239     0.03200
C1908       C  0.10747246  0.97813409  0.27054642     0.00900
C1909       C  0.11855333  0.95625097  0.28902698    -0.10900
C1910       C  0.10077469  0.93426141  0.29932684     0.03100
H1911       H  0.03682444  0.95851947  0.26973943     0.16100
H1912       H  0.14161550  0.95512320  0.29398805     0.16100
C1913       C  0.11518686  0.90786441  0.30951041     0.37700
C1914       C  0.06504197  0.00008468  0.24366890     0.37600
N1915       N  0.12722902  0.88688854  0.31732924    -0.42600
N1916       N  0.05491072  0.01680756  0.22732690    -0.42600
C1917       C  0.91096179  0.23714922  0.15770679     0.01000
C1918       C  0.93083969  0.25787082  0.16825190    -0.10900
C1919       C  0.96010941  0.25484064  0.16323269     0.03200
C1920       C  0.96939663  0.23135730  0.14653096     0.00900
C1921       C  0.94947146  0.21226149  0.13356299    -0.10900
C1922       C  0.92010618  0.21480773  0.13914855     0.03100
H1923       H  0.92374565  0.27515836  0.18231432     0.16100
H1924       H  0.95702977  0.19480779  0.11996901     0.16100
C1925       C  0.90057507  0.19278639  0.12767011     0.37700
C1926       C  0.98016555  0.27513881  0.17676395     0.37600
N1927       N  0.88509619  0.17502368  0.11844434    -0.42600
N1928       N  0.99592679  0.29141300  0.18804100    -0.42600
C1929       C  0.25663436  0.21452776  0.12183641     0.01000
C1930       C  0.26767194  0.23987224  0.10882986    -0.10900
C1931       C  0.28148276  0.23836446  0.08231983     0.03200
C1932       C  0.28336797  0.21127558  0.06823312     0.00900
C1933       C  0.26972154  0.18675587  0.08014702    -0.10900
C1934       C  0.25677665  0.18795703  0.10679822     0.03100
H1935       H  0.26674400  0.26051883  0.11994914     0.16100
H1936       H  0.26828543  0.16664966  0.06835517     0.16100
C1937       C  0.24347736  0.16162867  0.11795723     0.37700
C1938       C  0.29448210  0.26455752  0.07076558     0.37600
N1939       N  0.23293042  0.14049559  0.12681440    -0.42600
N1940       N  0.30474045  0.28569579  0.06160544    -0.42600
C1941       C  0.20343688  0.11152816  0.23750530     0.01000
C1942       C  0.19387759  0.09871074  0.21153348    -0.10900
C1943       C  0.17623061  0.07427545  0.21196391     0.03200
C1944       C  0.16820175  0.06237814  0.23874997     0.00900
C1945       C  0.17842195  0.07436325  0.26473580    -0.10900
C1946       C  0.19632380  0.09870869  0.26440276     0.03100
H1947       H  0.19901593  0.10851711  0.19080226     0.16100
H1948       H  0.17325288  0.06399737  0.28521067     0.16100
C1949       C  0.20739069  0.10950651  0.29187061     0.37700
C1950       C  0.16575357  0.06248837  0.18469873     0.37600
N1951       N  0.21619045  0.11799943  0.31394730    -0.42600
N1952       N  0.15729990  0.05338617  0.16275172    -0.42600
C1953       C  0.07302113  0.22116919  0.16671505     0.01000
C1954       C  0.08386843  0.24502328  0.18219129    -0.10900
C1955       C  0.11087384  0.24345246  0.19630857     0.03200
C1956       C  0.12660649  0.21702663  0.19634404     0.00900
C1957       C  0.11483994  0.19241821  0.18252969    -0.10900
C1958       C  0.08817702  0.19445244  0.16734520     0.03100
H1959       H  0.07147530  0.26512009  0.18272927     0.16100
H1960       H  0.12719912  0.17225599  0.18219237     0.16100
C1961       C  0.07745244  0.16947658  0.15149517     0.37700
C1962       C  0.12241978  0.26955920  0.20970030     0.37600
N1963       N  0.06894143  0.14949407  0.13866273    -0.42600
N1964       N  0.13169781  0.29060793  0.22011414    -0.42600
C1965       C  0.89915504  0.79690062  0.30309928     0.01000
C1966       C  0.92200029  0.77652058  0.30108869    -0.10900
C1967       C  0.94250201  0.77167075  0.32392641     0.03200
C1968       C  0.94167094  0.78816958  0.34964779     0.00900
C1969       C  0.92147386  0.81125115  0.35009416    -0.10900
C1970       C  0.89976880  0.81501735  0.32795642     0.03100
H1971       H  0.92272145  0.76250282  0.28236035     0.16100
H1972       H  0.91997323  0.82375020  0.36980865     0.16100
C1973       C  0.87648841  0.83499193  0.33360901     0.37700
C1974       C  0.96089513  0.74630548  0.32206531     0.37600
N1975       N  0.85765913  0.85051706  0.33910806    -0.42600
N1976       N  0.97467201  0.72531061  0.32020947    -0.42600
C1977       C  0.79288660  0.83234737  0.10701990     0.01000
C1978       C  0.77678903  0.80990536  0.09361824    -0.10900
C1979       C  0.76928321  0.81195510  0.06425067     0.03200
C1980       C  0.77877726  0.83626904  0.04831373     0.00900
C1981       C  0.79276932  0.85956728  0.06224670    -0.10900
C1982       C  0.79904412  0.85822913  0.09161150     0.03100
H1983       H  0.77124863  0.79029303  0.10567383     0.16100
H1984       H  0.80027618  0.87824000  0.04993285     0.16100
C1985       C  0.81212381  0.88352758  0.10518741     0.37700
C1986       C  0.75309303  0.78855015  0.05066341     0.37600
N1987       N  0.82252574  0.90368897  0.11626985    -0.42600
N1988       N  0.74005015  0.76984714  0.03974320    -0.42600
C1989       C  0.83325682  0.91366828  0.23637819     0.01000
C1990       C  0.81291055  0.93207886  0.22202224    -0.10900
C1991       C  0.80629524  0.95897483  0.23420316     0.03200
C1992       C  0.82266885  0.96804126  0.25844133     0.00900
C1993       C  0.83160517  0.94576460  0.27760733    -0.10900
C1994       C  0.84100613  0.91973761  0.26566828     0.03100
H1995       H  0.80189197  0.92536413  0.20212559     0.16100
H1996       H  0.83896337  0.95130719  0.29936915     0.16100
C1997       C  0.86211034  0.90280150  0.28233850     0.37700
C1998       C  0.77875370  0.97251883  0.22726926     0.37600
N1999       N  0.88008483  0.89009509  0.29512692    -0.42600
N2000       N  0.75630898  0.98303277  0.22234183    -0.42600
C2001       C  0.04463234  0.80550952  0.17621555     0.01000
C2002       C  0.04121860  0.83599115  0.17501211    -0.10900
C2003       C  0.04214152  0.85259995  0.20045127     0.03200
C2004       C  0.04683232  0.83859950  0.22760713     0.00900
C2005       C  0.05097071  0.80821615  0.22853611    -0.10900
C2006       C  0.04968302  0.79165538  0.20332181     0.03100
H2007       H  0.03681646  0.84657901  0.15423053     0.16100
H2008       H  0.05407192  0.79724041  0.24933417     0.16100
C2009       C  0.04958256  0.76026193  0.20636345     0.37700
C2010       C  0.03623670  0.88349549  0.19830974     0.37600
N2011       N  0.04854548  0.73518178  0.20967159    -0.42600
N2012       N  0.03147470  0.90830313  0.19666856    -0.42600
C2013       C  0.98736214  0.79539123  0.14429915     0.01000
C2014       C  0.98151216  0.79157600  0.17370130    -0.10900
C2015       C  0.95702902  0.80338089  0.18553500     0.03200
C2016       C  0.93567951  0.81623116  0.16722446     0.00900
C2017       C  0.94112609  0.82060546  0.13772715    -0.10900
C2018       C  0.96725462  0.81083689  0.12622947     0.03100
H2019       H  0.99583249  0.77870135  0.18763272     0.16100
H2020       H  0.92457519  0.83040469  0.12354343     0.16100
C2021       C  0.97257256  0.81641931  0.09605033     0.37700
C2022       C  0.95407514  0.80163743  0.21661408     0.37600
N2023       N  0.97670708  0.82084388  0.07179442    -0.42600
N2024       N  0.95195466  0.80065502  0.24150841    -0.42600
C2025       C  0.20218057  0.78955038  0.32341119     0.01000
C2026       C  0.17140135  0.78823220  0.32480787    -0.10900
C2027       C  0.15670276  0.78907244  0.35133513     0.03200
C2028       C  0.17238491  0.79037982  0.37793655     0.00900
C2029       C  0.20290791  0.79397575  0.37646518    -0.10900
C2030       C  0.21761735  0.79408927  0.34987080     0.03100
H2031       H  0.15848548  0.78619695  0.30493915     0.16100
H2032       H  0.21560947  0.79544766  0.39651001     0.16100
C2033       C  0.24841594  0.79972853  0.35038317     0.37700
C2034       C  0.12540410  0.78744905  0.35087986     0.37600
N2035       N  0.27307160  0.80462717  0.35080709    -0.42600
N2036       N  0.10029540  0.78650728  0.35072082    -0.42600
C2037       C  0.09272445  0.77577757  0.14517590     0.01000
C2038       C  0.10872880  0.80086096  0.13853080    -0.10900
C2039       C  0.13800583  0.80285371  0.14698482     0.03200
C2040       C  0.15080378  0.78029933  0.16401326     0.00900
C2041       C  0.13525669  0.75461762  0.16933012    -0.10900
C2042       C  0.10667691  0.75171150  0.15889900     0.03100
H2043       H  0.09833685  0.81878327  0.12666454     0.16100
H2044       H  0.14541084  0.73697534  0.18182010     0.16100
C2045       C  0.09235355  0.72391980  0.16254142     0.37700
C2046       C  0.15423777  0.82849710  0.13874286     0.37600
N2047       N  0.08135906  0.70136053  0.16541874    -0.42600
N2048       N  0.16742289  0.84884153  0.13187503    -0.42600
C2049       C  0.18792225  0.90123921  0.23896226     0.01000
C2050       C  0.20075732  0.92218148  0.25714686    -0.10900
C2051       C  0.18862738  0.94982024  0.25937774     0.03200
C2052       C  0.16378154  0.95718192  0.24233431     0.00900
C2053       C  0.14965049  0.93581990  0.22573680    -0.10900
C2054       C  0.16133782  0.90772084  0.22414088     0.03100
H2055       H  0.22042624  0.91695357  0.26963288     0.16100
H2056       H  0.12991953  0.94135017  0.21349984     0.16100
C2057       C  0.14622208  0.88659472  0.20627127     0.37700
C2058       C  0.20129743  0.96964760  0.28033239     0.37600
N2059       N  0.13387367  0.86966215  0.19213933    -0.42600
N2060       N  0.21147182  0.98508383  0.29752291    -0.42600
C2061       C  0.27659293  0.88514551  0.07035598     0.01000
C2062       C  0.25933038  0.89954745  0.09017746    -0.10900
C2063       C  0.25641810  0.88837476  0.11827855     0.03200
C2064       C  0.27033823  0.86182306  0.12635211     0.00900
C2065       C  0.28856535  0.84826895  0.10678203    -0.10900
C2066       C  0.29230389  0.86007667  0.07919745     0.03100
H2067       H  0.24782556  0.91929840  0.08354358     0.16100
H2068       H  0.30006697  0.82842143  0.11315326     0.16100
C2069       C  0.31346339  0.84690106  0.06098659     0.37700
C2070       C  0.23829447  0.90404540  0.13784816     0.37600
N2071       N  0.33096744  0.83649222  0.04690333    -0.42600
N2072       N  0.22395318  0.91684734  0.15349749    -0.42600
C2073       C  0.05330770  0.82541910  0.81688706     0.01000
C2074       C  0.05695398  0.85551190  0.81984532    -0.10900
C2075       C  0.06106769  0.87328660  0.79561522     0.03200
C2076       C  0.06164033  0.86074958  0.76786997     0.00900
C2077       C  0.06106277  0.83011184  0.76545653    -0.10900
C2078       C  0.05706864  0.81238431  0.78988528     0.03100
H2079       H  0.05470069  0.86524079  0.84095817     0.16100
H2080       H  0.06236337  0.82013144  0.74437901     0.16100
C2081       C  0.05649580  0.78103327  0.78699478     0.37700
C2082       C  0.06437756  0.90420864  0.80005375     0.37600
N2083       N  0.05628260  0.75584901  0.78489862    -0.42600
N2084       N  0.06706142  0.92885665  0.80469064    -0.42600
C2085       C  0.15497860  0.80297034  0.66348243     0.01000
C2086       C  0.18332359  0.81454686  0.66188687    -0.10900
C2087       C  0.20296636  0.81450024  0.68627019     0.03200
C2088       C  0.19488317  0.80192999  0.71322604     0.00900
C2089       C  0.16546169  0.79377158  0.71546522    -0.10900
C2090       C  0.14572209  0.79477569  0.69141702     0.03100
H2091       H  0.19122753  0.82084593  0.64083033     0.16100
H2092       H  0.15781384  0.78575964  0.73606702     0.16100
C2093       C  0.11653890  0.78429477  0.69534517     0.37700
C2094       C  0.23190310  0.82559447  0.68222902     0.37600
N2095       N  0.09319479  0.77575816  0.69857919    -0.42600
N2096       N  0.25508926  0.83456173  0.67895329    -0.42600
C2097       C  0.08832341  0.79800098  0.86621095     0.01000
C2098       C  0.09960336  0.77239037  0.85467596    -0.10900
C2099       C  0.12930694  0.76942472  0.85111007     0.03200
C2100       C  0.14785714  0.79287509  0.85854941     0.00900
C2101       C  0.13664827  0.81709937  0.87308694    -0.10900
C2102       C  0.10690960  0.81988678  0.87676819     0.03100
H2103       H  0.08500054  0.75520322  0.84735546     0.16100
H2104       H  0.15072560  0.83505245  0.87949275     0.16100
C2105       C  0.09590573  0.84606146  0.88970249     0.37700
C2106       C  0.13990325  0.74257129  0.83910381     0.37600
N2107       N  0.08727590  0.86715054  0.90003847    -0.57400
N2108       N  0.14828576  0.72095980  0.82960272    -0.42600
C2109       C  0.26548478  0.86901970  0.90737951     0.01000
C2110       C  0.24194736  0.87923261  0.92296793    -0.10900
C2111       C  0.24629622  0.89041798  0.95083956     0.03200
C2112       C  0.27465396  0.89220451  0.96304921     0.00900
C2113       C  0.29835832  0.88457510  0.94638625    -0.10900
C2114       C  0.29395471  0.87245364  0.91891821     0.03100
H2115       H  0.22002684  0.87693811  0.91405417     0.16100
H2116       H  0.32021333  0.88636805  0.95558099     0.16100
C2117       C  0.31885996  0.86305640  0.90321465     0.37700
C2118       C  0.22133742  0.89949018  0.96665213     0.37600
N2119       N  0.33869131  0.85533464  0.89054450    -0.42600
N2120       N  0.20128298  0.90676393  0.97925098    -0.42600
C2121       C  0.12752841  0.97389776  0.70505380     0.01000
C2122       C  0.12750160  0.96251990  0.73330419    -0.10900
C2123       C  0.14389029  0.97552501  0.75564636     0.03200
C2124       C  0.16351907  0.99827284  0.74925713     0.00900
C2125       C  0.16502042  0.00824284  0.72035788    -0.10900
C2126       C  0.14644168  0.99696342  0.69854934     0.03100
H2127       H  0.11324930  0.94434573  0.73808109     0.16100
H2128       H  0.18068498  0.02480442  0.71470843     0.16100
C2129       C  0.14698692  0.00921947  0.66969408     0.37700
C2130       C  0.13792806  0.96680272  0.78497288     0.37600
N2131       N  0.14735603  0.01906806  0.64651788    -0.42600
N2132       N  0.13201118  0.95975365  0.80820764    -0.42600
C2133       C  0.20830051  0.96515078  0.78813640     0.01000
C2134       C  0.21559970  0.95152163  0.76244924    -0.10900
C2135       C  0.21580343  0.92128478  0.76110969     0.03200
C2136       C  0.20796599  0.90493830  0.78568715     0.00900
C2137       C  0.19951438  0.91881193  0.81088953    -0.10900
C2138       C  0.20032551  0.94886713  0.81256144     0.03100
H2139       H  0.22114166  0.96454769  0.74361256     0.16100
H2140       H  0.19413280  0.90612968  0.83001888     0.16100
C2141       C  0.19143724  0.96223765  0.83905683     0.37700
C2142       C  0.22466509  0.90760050  0.73475208     0.37600
N2143       N  0.18360326  0.97217221  0.86038027    -0.42600
N2144       N  0.23193370  0.89673573  0.71365294    -0.42600
C2145       C  0.22434177  0.06858480  0.80618997     0.01000
C2146       C  0.24807864  0.07637809  0.78964828    -0.10900
C2147       C  0.25780208  0.10508645  0.78926195     0.03200
C2148       C  0.24414283  0.12582888  0.80653407     0.00900
C2149       C  0.22213048  0.11728492  0.82509981    -0.10900
C2150       C  0.21165685  0.08887349  0.82458702     0.03100
H2151       H  0.25745969  0.06055616  0.77529052     0.16100
H2152       H  0.21168940  0.13332221  0.83846167     0.16100
C2153       C  0.18703686  0.08175138  0.84191761     0.37700
C2154       C  0.28073690  0.11272629  0.77000715     0.37600
N2155       N  0.16742980  0.07668649  0.85624760    -0.42600
N2156       N  0.29889125  0.11825474  0.75407820    -0.42600
C2157       C  0.28779761  0.21861240  0.90667161     0.01000
C2158       C  0.31375548  0.23107973  0.91735288    -0.10900
C2159       C  0.32156321  0.22848260  0.94651960     0.03200
C2160       C  0.30297468  0.21354158  0.96504626     0.00900
C2161       C  0.27708268  0.20115091  0.95454697    -0.10900
C2162       C  0.26952217  0.20311388  0.92536114     0.03100
H2163       H  0.32774150  0.24315657  0.90297173     0.16100
H2164       H  0.26299286  0.18957758  0.96921993     0.16100
C2165       C  0.24393446  0.18767175  0.91515730     0.37700
C2166       C  0.34794959  0.24220450  0.95715468     0.37600
N2167       N  0.22357712  0.17487584  0.90729857    -0.42600
N2168       N  0.36901900  0.25339060  0.96562501    -0.42600
C2169       C  0.10840705  0.26620466  0.84944706     0.01000
C2170       C  0.12118852  0.24050874  0.85998944    -0.10900
C2171       C  0.14809100  0.23200634  0.85024149     0.03200
C2172       C  0.16269753  0.25034498  0.83048074     0.00900
C2173       C  0.14991207  0.27679601  0.82105772    -0.10900
C2174       C  0.12264247  0.28452176  0.82995550     0.03100
H2175       H  0.10956090  0.22655324  0.87487009     0.16100
H2176       H  0.16098289  0.29138903  0.80635038     0.16100
C2177       C  0.10980740  0.31162082  0.81943020     0.37700
C2178       C  0.15964331  0.20441596  0.86077712     0.37600
N2179       N  0.09948885  0.33342910  0.81145185    -0.42600
N2180       N  0.16851823  0.18211899  0.86913037    -0.42600
C2181       C  0.96888585  0.98281075  0.73388413     0.01000
C2182       C  0.99653043  0.97950471  0.74613209    -0.10900
C2183       C  0.01837174  0.96658570  0.73073362     0.03200
C2184       C  0.01220536  0.95515537  0.70269097     0.00900
C2185       C  0.98488025  0.96161103  0.68957786    -0.10900
C2186       C  0.96300595  0.97456012  0.70519902     0.03100
H2187       H  0.00124349  0.98796578  0.76765403     0.16100
H2188       H  0.98041192  0.95695062  0.66700708     0.16100
C2189       C  0.93540790  0.98104227  0.69090982     0.37700
C2190       C  0.04664507  0.96692736  0.74466775     0.37600
N2191       N  0.91335038  0.98660789  0.67955122    -0.42600
N2192       N  0.06869123  0.96908933  0.75699237    -0.42600
C2193       C  0.91710906  0.06672868  0.77546008     0.01000
C2194       C  0.91497043  0.07490497  0.80427154    -0.10900
C2195       C  0.90213631  0.10118449  0.81123661     0.03200
C2196       C  0.89140081  0.11981646  0.78882124     0.00900
C2197       C  0.89429841  0.11189110  0.75977793    -0.10900
C2198       C  0.90708939  0.08539303  0.75291723     0.03100
H2199       H  0.92293762  0.06044973  0.82142546     0.16100
H2200       H  0.88629745  0.12624671  0.74247144     0.16100
C2201       C  0.90845447  0.07727732  0.72284150     0.37700
C2202       C  0.89885361  0.10739174  0.84153953     0.37600
N2203       N  0.90957146  0.07078949  0.69875041    -0.42600
N2204       N  0.89624265  0.11203304  0.86589007    -0.42600
C2205       C  0.94590332  0.25134107  0.82601201     0.01000
C2206       C  0.95359836  0.28099030  0.82510208    -0.10900
C2207       C  0.98246502  0.28924002  0.82961994     0.03200
C2208       C  0.00350152  0.26754727  0.83550729     0.00900
C2209       C  0.99603430  0.23798514  0.83448675    -0.10900
C2210       C  0.96756531  0.22966521  0.82911655     0.03100
H2211       H  0.93704941  0.29762463  0.82167155     0.16100
H2212       H  0.01215137  0.22129720  0.83938386     0.16100
C2213       C  0.96136799  0.19878084  0.82654035     0.37700
C2214       C  0.99005321  0.31986105  0.82854909     0.37600
N2215       N  0.95639214  0.17409599  0.82427925    -0.42600
N2216       N  0.99628882  0.34435255  0.82751529    -0.42600
C2217       C  0.83124597  0.18039337  0.91473566     0.01000
C2218       C  0.80360054  0.18610960  0.92544503    -0.10900
C2219       C  0.79480267  0.17354673  0.95111420     0.03200
C2220       C  0.81378839  0.15482487  0.96666973     0.00900
C2221       C  0.84183855  0.14989621  0.95717647    -0.10900
C2222       C  0.85094433  0.16278907  0.93140445     0.03100
H2223       H  0.78831812  0.20004664  0.91350460     0.16100
H2224       H  0.85654287  0.13602429  0.96992695     0.16100
C2225       C  0.88046746  0.15771450  0.92311301     0.37700
C2226       C  0.76609091  0.18024569  0.96091784     0.37600
N2227       N  0.90429060  0.15376954  0.91690052    -0.42600
N2228       N  0.74317530  0.18611361  0.96864504    -0.42600
C2229       C  0.86524805  0.77656129  0.69120311     0.01000
C2230       C  0.86508843  0.79376950  0.66538659    -0.10900
C2231       C  0.88617863  0.79038194  0.64361574     0.03200
C2232       C  0.90924225  0.77009308  0.64716188     0.00900
C2233       C  0.91066610  0.75457281  0.67394530    -0.10900
C2234       C  0.88904395  0.75719954  0.69525969     0.03100
H2235       H  0.84812193  0.80995776  0.66201854     0.16100
H2236       H  0.92799053  0.73883298  0.67749036     0.16100
C2237       C  0.89155719  0.73951422  0.72123935     0.37700
C2238       C  0.88327547  0.80735970  0.61723360     0.37600
N2239       N  0.89293108  0.72530690  0.74211763    -0.42600
N2240       N  0.88111694  0.82103918  0.59605005    -0.42600
C2241       C  0.83639622  0.80696410  0.89765496     0.01000
C2242       C  0.85408315  0.81414350  0.92168776    -0.10900
C2243       C  0.84135654  0.81985865  0.94823669     0.03200
C2244       C  0.81081874  0.81880666  0.95005042     0.00900
C2245       C  0.79377526  0.80878217  0.92683637    -0.10900
C2246       C  0.80636887  0.80222659  0.90087407     0.03100
H2247       H  0.87717827  0.81751398  0.91917012     0.16100
H2248       H  0.77035642  0.80764329  0.92853948     0.16100
C2249       C  0.78764813  0.79283919  0.87703034     0.37700
C2250       C  0.85949536  0.82963860  0.97222371     0.37600
N2251       N  0.77276551  0.78546897  0.85785190    -0.42600
N2252       N  0.87402484  0.83742613  0.99149464    -0.42600
C2253       C  0.88344726  0.90772312  0.77652701     0.01000
C2254       C  0.90758586  0.91534697  0.79405887    -0.10900
C2255       C  0.92272428  0.94139706  0.78889161     0.03200
C2256       C  0.91358923  0.96014755  0.76600364     0.00900
C2257       C  0.88982427  0.95221236  0.74816412    -0.10900
C2258       C  0.87474926  0.92619745  0.75322501     0.03100
H2259       H  0.91479509  0.90079090  0.81152274     0.16100
H2260       H  0.88234984  0.96693580  0.73096181     0.16100
C2261       C  0.84964537  0.91942190  0.73505446     0.37700
C2262       C  0.94725712  0.94878812  0.80753418     0.37600
N2263       N  0.82942323  0.91391523  0.72068436    -0.42600
N2264       N  0.96698639  0.95481377  0.82236477    -0.42600
C2265       C  0.94884671  0.78980532  0.77899421     0.01000
C2266       C  0.95920960  0.81798029  0.78504333    -0.10900
C2267       C  0.98096035  0.82175453  0.80618476     0.03200
C2268       C  0.99435104  0.79693135  0.81872236     0.00900
C2269       C  0.98799837  0.76906445  0.80802197    -0.10900
C2270       C  0.96509697  0.76530020  0.78818066     0.03100
H2271       H  0.94666382  0.83692149  0.77777847     0.16100
H2272       H  0.99973869  0.75015035  0.81649462     0.16100
C2273       C  0.95668218  0.73608382  0.78002472     0.37700
C2274       C  0.98597009  0.85069014  0.81746902     0.37600
N2275       N  0.95043895  0.71249394  0.77353910    -0.42600
N2276       N  0.98951330  0.87390388  0.82662673    -0.42600
C2277       C  0.55991469  0.27740133  0.69194676     0.01000
C2278       C  0.56849607  0.27488153  0.72131971    -0.10900
C2279       C  0.57028985  0.29943661  0.73907210     0.03200
C2280       C  0.56248203  0.32708699  0.72777849     0.00900
C2281       C  0.55541583  0.33005701  0.69819861    -0.10900
C2282       C  0.55471319  0.30563507  0.68006744     0.03100
H2283       H  0.57330417  0.25344466  0.73050156     0.16100
H2284       H  0.54995365  0.35152296  0.68945930     0.16100
C2285       C  0.54803485  0.31049839  0.64976496     0.37700
C2286       C  0.57915918  0.29553912  0.76903503     0.37600
N2287       N  0.54326703  0.31560474  0.62551043    -0.42600
N2288       N  0.58647125  0.29198010  0.79299274    -0.42600
C2289       C  0.56575453  0.21078965  0.58778925     0.01000
C2290       C  0.58646818  0.19352653  0.57389415    -0.10900
C2291       C  0.60818660  0.20625180  0.55752473     0.03200
C2292       C  0.60758224  0.23644580  0.55185362     0.00900
C2293       C  0.58364342  0.25277064  0.56042104    -0.10900
C2294       C  0.56253068  0.24007402  0.57797773     0.03100
H2295       H  0.58693742  0.17007218  0.57679238     0.16100
H2296       H  0.58193678  0.27563562  0.55416662     0.16100
C2297       C  0.53759614  0.25729235  0.58488640     0.37700
C2298       C  0.63169644  0.18801564  0.54837010     0.37600
N2299       N  0.51716174  0.27090303  0.58958118    -0.42600
N2300       N  0.65053130  0.17307165  0.54163198    -0.42600
C2301       C  0.44080937  0.20376484  0.59460578     0.01000
C2302       C  0.42283615  0.18160200  0.58375542    -0.10900
C2303       C  0.39691269  0.18872162  0.56897031     0.03200
C2304       C  0.38970427  0.21833619  0.56405443     0.00900
C2305       C  0.40596191  0.24005395  0.57834621    -0.10900
C2306       C  0.43124340  0.23282898  0.59402424     0.03100
H2307       H  0.42969794  0.15899354  0.58583625     0.16100
H2308       H  0.40094563  0.26283928  0.57495427     0.16100
C2309       C  0.44743534  0.25544304  0.60886800     0.37700
C2310       C  0.37871771  0.16552883  0.55778481     0.37600
N2311       N  0.46004008  0.27350795  0.62127428    -0.42600
N2312       N  0.36398762  0.14693451  0.54902780    -0.42600
C2313       C  0.83180982  0.99332119  0.81571479     0.01000
C2314       C  0.85722810  0.99644337  0.83296412    -0.10900
C2315       C  0.88342108  0.00488648  0.82064836     0.03200
C2316       C  0.88433442  0.01124189  0.79079695     0.00900
C2317       C  0.85879280  0.00958289  0.77378479    -0.10900
C2318       C  0.83283987  0.00001749  0.78571280     0.03100
H2319       H  0.85680986  0.99166431  0.85597468     0.16100
H2320       H  0.85979484  0.01359606  0.75064718     0.16100
C2321       C  0.80847452  0.99460585  0.76613116     0.37700
C2322       C  0.90939426  0.00574078  0.83876892     0.37600
N2323       N  0.78904870  0.99011338  0.75034657    -0.42600
N2324       N  0.93016217  0.00664307  0.85343712    -0.42600
C2325       C  0.77513527  0.87882274  0.94830795     0.01000
C2326       C  0.79652363  0.88356120  0.92749684    -0.10900
C2327       C  0.79266318  0.90492771  0.90543384     0.03200
C2328       C  0.77019691  0.92598115  0.90763143     0.00900
C2329       C  0.75143444  0.92285460  0.93107161    -0.10900
C2330       C  0.75063035  0.89701339  0.94692069     0.03100
H2331       H  0.81565100  0.87001245  0.92736859     0.16100
H2332       H  0.73345059  0.93793301  0.93316140     0.16100
C2333       C  0.72265003  0.88735949  0.95669697     0.37700
C2334       C  0.81052647  0.90228874  0.88056127     0.37600
N2335       N  0.69989349  0.87959488  0.96348124    -0.42600
N2336       N  0.82512833  0.89867558  0.86093649    -0.42600
C2337       C  0.77023004  0.04730575  0.93512467     0.01000
C2338       C  0.74863783  0.06766202  0.94134116    -0.10900
C2339       C  0.75459111  0.09119578  0.95939168     0.03200
C2340       C  0.78264382  0.09456860  0.97180484     0.00900
C2341       C  0.80465393  0.07490900  0.96484528    -0.10900
C2342       C  0.79866641  0.05133509  0.94649433     0.03100
H2343       H  0.72684403  0.06485710  0.93228257     0.16100
H2344       H  0.82628503  0.07756458  0.97435774     0.16100
C2345       C  0.82202480  0.03213342  0.93899161     0.37700
C2346       C  0.73144611  0.11151186  0.96455394     0.37600
N2347       N  0.84066546  0.01665938  0.93282922    -0.42600
N2348       N  0.71241667  0.12745252  0.96802937    -0.42600
C2349       C  0.30235498  0.99880796  0.84894391     0.01000
C2350       C  0.27789959  0.00816199  0.86382372    -0.10900
C2351       C  0.25127282  0.01302612  0.84948926     0.03200
C2352       C  0.24827610  0.00817313  0.81955316     0.00900
C2353       C  0.27244808  0.99827164  0.80449932    -0.10900
C2354       C  0.29948364  0.99386831  0.81890938     0.03100
H2355       H  0.27981113  0.01263033  0.88680288     0.16100
H2356       H  0.27031172  0.99479686  0.78135801     0.16100
C2357       C  0.32393912  0.98467787  0.80254144     0.37700
C2358       C  0.22738452  0.02279155  0.86630293     0.37600
N2359       N  0.34368115  0.97769304  0.78934710    -0.42600
N2360       N  0.20867538  0.03026861  0.88064828    -0.42600
C2361       C  0.34807315  0.98823510  0.95984172     0.01000
C2362       C  0.31742478  0.98960610  0.95740636    -0.10900
C2363       C  0.29972244  0.96839838  0.97054582     0.03200
C2364       C  0.31238780  0.94617568  0.98804946     0.00900
C2365       C  0.34248684  0.94721680  0.99353311    -0.10900
C2366       C  0.35997787  0.96885791  0.98116845     0.03100
H2367       H  0.30729140  0.00626633  0.94363507     0.16100
H2368       H  0.35251330  0.93117471  0.00784736     0.16100
C2369       C  0.38890543  0.97253909  0.99344223     0.37700
C2370       C  0.26872100  0.96970622  0.96549288     0.37600
N2371       N  0.41192992  0.97552465  0.00369090    -0.42600
N2372       N  0.24385666  0.97073674  0.96131770    -0.42600
C2373       C  0.33722004  0.16348483  0.99045766     0.01000
C2374       C  0.31662907  0.14403822  0.97869373    -0.10900
C2375       C  0.32521712  0.11862363  0.96506109     0.03200
C2376       C  0.35490888  0.11229009  0.96289763     0.00900
C2377       C  0.37569672  0.13219034  0.97366090    -0.10900
C2378       C  0.36699517  0.15770200  0.98763524     0.03100
H2379       H  0.29368940  0.14826605  0.98094525     0.16100
H2380       H  0.39858552  0.12739160  0.97170843     0.16100
C2381       C  0.38872003  0.17758779  0.99896560     0.37700
C2382       C  0.30323674  0.09942387  0.95303951     0.37600
N2383       N  0.40601840  0.19369914  0.00800032    -0.42600
N2384       N  0.28572421  0.08394501  0.94332341    -0.42600
C2385       C  0.53907445  0.75398479  0.70512871     0.01000
C2386       C  0.53809682  0.72539821  0.69443436    -0.10900
C2387       C  0.53790371  0.70117946  0.71320310     0.03200
C2388       C  0.53783283  0.70530485  0.74335855     0.00900
C2389       C  0.53893190  0.73363892  0.75423562    -0.10900
C2390       C  0.53978569  0.75797333  0.73554886     0.03100
H2391       H  0.53767984  0.72205865  0.67121887     0.16100
H2392       H  0.53893492  0.73662721  0.77750082     0.16100
C2393       C  0.54040202  0.78627993  0.74879120     0.37700
C2394       C  0.53702069  0.67238074  0.70092504     0.37600
N2395       N  0.54102275  0.80802398  0.76134043    -0.42600
N2396       N  0.53586331  0.64950265  0.69054290    -0.42600
C2397       C  0.49299769  0.80470037  0.59845956     0.01000
C2398       C  0.48893604  0.77421547  0.60109656    -0.10900
C2399       C  0.46470722  0.76022666  0.58858738     0.03200
C2400       C  0.44504148  0.77624246  0.57089781     0.00900
C2401       C  0.45015476  0.80611974  0.56619606    -0.10900
C2402       C  0.47435830  0.82009458  0.57867610     0.03100
H2403       H  0.50530136  0.76076117  0.61178732     0.16100
H2404       H  0.43596884  0.81828377  0.55132972     0.16100
C2405       C  0.48055945  0.84946079  0.56883873     0.37700
C2406       C  0.46124138  0.72914851  0.59310955     0.37600
N2407       N  0.48542639  0.87294353  0.56073998    -0.42600
N2408       N  0.45833508  0.70429247  0.59696690    -0.42600
C2409       C  0.60869600  0.80554422  0.56226125     0.01000
C2410       C  0.63150720  0.82310180  0.55259718    -0.10900
C2411       C  0.65369597  0.81118657  0.53650635     0.03200
C2412       C  0.65274596  0.78136635  0.52941398     0.00900
C2413       C  0.63005703  0.76376547  0.53907690    -0.10900
C2414       C  0.60826313  0.77548221  0.55573073     0.03100
H2415       H  0.63218803  0.84604962  0.55819685     0.16100
H2416       H  0.62986425  0.74061293  0.53421567     0.16100
C2417       C  0.58698243  0.75584705  0.56750297     0.37700
C2418       C  0.67806590  0.82946630  0.52943591     0.37600
N2419       N  0.56992570  0.74015851  0.57705854    -0.42600
N2420       N  0.69766084  0.84433973  0.52444223    -0.42600
C2421       C  0.41212880  0.87441329  0.75622821     0.01000
C2422       C  0.41689350  0.84832285  0.77186073    -0.10900
C2423       C  0.39752822  0.82492049  0.77046017     0.03200
C2424       C  0.37157701  0.82710591  0.75331720     0.00900
C2425       C  0.36784489  0.85230128  0.73551619    -0.10900
C2426       C  0.38782082  0.87586640  0.73696645     0.03100
H2427       H  0.43463927  0.84726828  0.78774103     0.16100
H2428       H  0.34876931  0.85413603  0.72132137     0.16100
C2429       C  0.38181521  0.90219170  0.72042512     0.37700
C2430       C  0.40491757  0.79943654  0.78794121     0.37600
N2431       N  0.37710331  0.92340595  0.70723695    -0.42600
N2432       N  0.41103891  0.77923642  0.80214397    -0.42600
C2433       C  0.39440538  0.89944675  0.80847221     0.01000
C2434       C  0.36819677  0.90741080  0.79432019    -0.10900
C2435       C  0.34393105  0.88887640  0.79389371     0.03200
C2436       C  0.34496342  0.86147254  0.80868914     0.00900
C2437       C  0.36968485  0.85574924  0.82677924    -0.10900
C2438       C  0.39420150  0.87453979  0.82681120     0.03100
H2439       H  0.36811409  0.92649553  0.78022518     0.16100
H2440       H  0.37060001  0.83578890  0.83963419     0.16100
C2441       C  0.41999894  0.86648759  0.84339459     0.37700
C2442       C  0.31882688  0.89842581  0.77687185     0.37600
N2443       N  0.44079035  0.86022199  0.85669269    -0.42600
N2444       N  0.29891201  0.90629141  0.76305686    -0.42600
C2445       C  0.46265422  0.91141196  0.73033770     0.01000
C2446       C  0.46292860  0.93347432  0.70900783    -0.10900
C2447       C  0.46954585  0.92638851  0.68047847     0.03200
C2448       C  0.47311347  0.89685464  0.67303271     0.00900
C2449       C  0.46973479  0.87504280  0.69409981    -0.10900
C2450       C  0.46800324  0.88238259  0.72292469     0.03100
H2451       H  0.45839465  0.95591654  0.71466810     0.16100
H2452       H  0.47321975  0.85239360  0.68852098     0.16100
C2453       C  0.47489795  0.86046760  0.74487564     0.37700
C2454       C  0.47334275  0.94935300  0.65930888     0.37600
N2455       N  0.48172814  0.84309231  0.76217683    -0.42600
N2456       N  0.47643571  0.96775869  0.64227658    -0.42600
C2457       C  0.44219977  0.94136932  0.83323025     0.01000
C2458       C  0.41482558  0.94673525  0.84446999    -0.10900
C2459       C  0.41061181  0.94359994  0.87384835     0.03200
C2460       C  0.43439067  0.94684955  0.89316666     0.00900
C2461       C  0.46216884  0.94230165  0.88263202    -0.10900
C2462       C  0.46619555  0.93812386  0.85301836     0.03100
H2463       H  0.39597985  0.94959491  0.83015114     0.16100
H2464       H  0.48082156  0.94439967  0.89734028     0.16100
C2465       C  0.49517438  0.93100908  0.84490821     0.37700
C2466       C  0.38200799  0.93672453  0.88372032     0.37600
N2467       N  0.51929634  0.92544192  0.84147051    -0.42600
N2468       N  0.35934818  0.92963127  0.89137822    -0.42600
C2469       C  0.66697939  0.86068624  0.73307151     0.01000
C2470       C  0.69676035  0.86413901  0.72701998    -0.10900
C2471       C  0.71550697  0.83973965  0.72359396     0.03200
C2472       C  0.70510776  0.81082894  0.72746822     0.00900
C2473       C  0.67487240  0.80748421  0.73038836    -0.10900
C2474       C  0.65599148  0.83178775  0.73252272     0.03100
H2475       H  0.70598353  0.88593966  0.72734779     0.16100
H2476       H  0.66596122  0.78560368  0.73210880     0.16100
C2477       C  0.62599953  0.82624733  0.73854814     0.37700
C2478       C  0.74583395  0.84498491  0.71864068     0.37600
N2479       N  0.60218408  0.82172170  0.74439050    -0.42600
N2480       N  0.77019826  0.84909022  0.71469892    -0.42600
C2481       C  0.68173462  0.87305964  0.79268210     0.01000
C2482       C  0.70734605  0.88980202  0.79297343    -0.10900
C2483       C  0.73530427  0.87680528  0.79282115     0.03200
C2484       C  0.73883123  0.84571364  0.79202396     0.00900
C2485       C  0.71346610  0.82900290  0.79500430    -0.10900
C2486       C  0.68553005  0.84208803  0.79566200     0.03100
H2487       H  0.70539776  0.91334537  0.79068166     0.16100
H2488       H  0.71534671  0.80540018  0.79633738     0.16100
C2489       C  0.66114385  0.82263706  0.79845851     0.37700
C2490       C  0.75982278  0.89646033  0.79182493     0.37600
N2491       N  0.64185626  0.80672569  0.80123372    -0.42600
N2492       N  0.77928768  0.91245061  0.79121747    -0.42600
C2493       C  0.61048086  0.89593060  0.71436131     0.01000
C2494       C  0.58359561  0.88388439  0.71948051    -0.10900
C2495       C  0.56806459  0.86903012  0.69846264     0.03200
C2496       C  0.57887475  0.86525068  0.67026824     0.00900
C2497       C  0.60569077  0.87859965  0.66422519    -0.10900
C2498       C  0.62170876  0.89353224  0.68624618     0.03100
H2499       H  0.57603259  0.88276402  0.74114877     0.16100
H2500       H  0.61426135  0.87744956  0.64275545     0.16100
C2501       C  0.64969560  0.90571719  0.67986822     0.37700
C2502       C  0.54182890  0.85553340  0.70768103     0.37600
N2503       N  0.67222683  0.91548354  0.67497392    -0.42600
N2504       N  0.52167085  0.84235974  0.71405179    -0.42600
C2505       C  0.62722874  0.90480363  0.82115810     0.01000
C2506       C  0.63745544  0.88065220  0.83760746    -0.10900
C2507       C  0.65256505  0.88539299  0.86378091     0.03200
C2508       C  0.65441601  0.91420900  0.87346685     0.00900
C2509       C  0.63033569  0.93165439  0.86610948    -0.10900
C2510       C  0.61875773  0.92928879  0.83783426     0.03100
H2511       H  0.63740581  0.85932903  0.82836210     0.16100
H2512       H  0.62709843  0.95175169  0.87784599     0.16100
C2513       C  0.59772978  0.95109975  0.82937673     0.37700
C2514       C  0.67059718  0.86256759  0.87631127     0.37600
N2515       N  0.58047020  0.96924907  0.82573482    -0.42600
N2516       N  0.68517025  0.84425613  0.88630135    -0.42600
C2517       C  0.67486457  0.14745181  0.76003893     0.01000
C2518       C  0.69918001  0.14811678  0.74203853    -0.10900
C2519       C  0.71831650  0.17254024  0.74125842     0.03200
C2520       C  0.71368935  0.19719041  0.75880450     0.00900
C2521       C  0.68850821  0.19687624  0.77560387    -0.10900
C2522       C  0.66939631  0.17276552  0.77623590     0.03100
H2523       H  0.70415639  0.12882262  0.72971578     0.16100
H2524       H  0.68331329  0.21609698  0.78797449     0.16100
C2525       C  0.64429530  0.17428575  0.79416400     0.37700
C2526       C  0.74263266  0.17178697  0.72234865     0.37600
N2527       N  0.62406589  0.17544420  0.80838533    -0.42600
N2528       N  0.76228983  0.17112314  0.70733766    -0.42600
C2529       C  0.74967106  0.15172644  0.80405685     0.01000
C2530       C  0.72670026  0.15352678  0.82356575    -0.10900
C2531       C  0.70388314  0.13261491  0.82357547     0.03200
C2532       C  0.70273525  0.10971928  0.80312267     0.00900
C2533       C  0.72767398  0.10587628  0.78673663    -0.10900
C2534       C  0.75093570  0.12583997  0.78733412     0.03100
H2535       H  0.72587210  0.17186774  0.83816025     0.16100
H2536       H  0.72781102  0.08949673  0.77034158     0.16100
C2537       C  0.77499835  0.11943734  0.76904816     0.37700
C2538       C  0.68062325  0.13629333  0.84342035     0.37600
N2539       N  0.79418050  0.11406028  0.75437539    -0.42600
N2540       N  0.66213697  0.13924131  0.85956458    -0.42600
C2541       C  0.61162244  0.13154668  0.67203596     0.01000
C2542       C  0.61808092  0.10212948  0.67653209    -0.10900
C2543       C  0.62532986  0.09140162  0.70412110     0.03200
C2544       C  0.62499450  0.11042485  0.72812325     0.00900
C2545       C  0.61968311  0.14025018  0.72301927    -0.10900
C2546       C  0.61545537  0.15111367  0.69505785     0.03100
H2547       H  0.61491762  0.08712769  0.65867979     0.16100
H2548       H  0.61983318  0.15537945  0.74087421     0.16100
C2549       C  0.61247962  0.18223945  0.69069812     0.37700
C2550       C  0.63326354  0.06106668  0.70571634     0.37600
N2551       N  0.61094902  0.20730531  0.68743786    -0.42600
N2552       N  0.63933871  0.03668928  0.70364826    -0.42600
C2553       C  0.71045839  0.01066879  0.83467225     0.01000
C2554       C  0.71396166  0.01603423  0.80508465    -0.10900
C2555       C  0.69649588  0.03621035  0.79004300     0.03200
C2556       C  0.67296376  0.04961642  0.80381579     0.00900
C2557       C  0.66789792  0.04289443  0.83267421    -0.10900
C2558       C  0.68626834  0.02375774  0.84825978     0.03100
H2559       H  0.73005586  0.00434358  0.79325547     0.16100
H2560       H  0.65030387  0.05374676  0.84335272     0.16100
C2561       C  0.67934180  0.01791028  0.87811195     0.37700
C2562       C  0.70324471  0.04261750  0.76024608     0.37600
N2563       N  0.67366944  0.01322172  0.90197172    -0.42600
N2564       N  0.70843218  0.04741534  0.73627952    -0.42600
C2565       C  0.40420787  0.13355027  0.79428570     0.01000
C2566       C  0.40226094  0.15520306  0.81539788    -0.10900
C2567       C  0.37956699  0.17593397  0.81424414     0.03200
C2568       C  0.35882129  0.17613685  0.79072670     0.00900
C2569       C  0.35943929  0.15255430  0.77144777    -0.10900
C2570       C  0.38109881  0.13099274  0.77368446     0.03100
H2571       H  0.41967962  0.15728431  0.83154472     0.16100
H2572       H  0.34354852  0.15142489  0.75380063     0.16100
C2573       C  0.38038690  0.10725136  0.75331733     0.37700
C2574       C  0.37865120  0.19687763  0.83733041     0.37600
N2575       N  0.37985872  0.08793835  0.73734457    -0.42600
N2576       N  0.37781081  0.21352229  0.85597249    -0.42600
C2577       C  0.43869151  0.16552645  0.75367951     0.01000
C2578       C  0.44004595  0.18988516  0.77217308    -0.10900
C2579       C  0.42039558  0.21386940  0.76952077     0.03200
C2580       C  0.39759761  0.21467008  0.74782061     0.00900
C2581       C  0.39823225  0.19173639  0.72739121    -0.10900
C2582       C  0.41836510  0.16789294  0.72995770     0.03100
H2583       H  0.45502806  0.18896954  0.79070932     0.16100
H2584       H  0.38247187  0.19197048  0.70951153     0.16100
C2585       C  0.41682159  0.14530246  0.70848545     0.37700
C2586       C  0.42356565  0.23657669  0.79080443     0.37600
N2587       N  0.41554430  0.12732426  0.69106872    -0.42600
N2588       N  0.42622712  0.25471505  0.80794520    -0.42600
C2589       C  0.49167491  0.12810760  0.73774474     0.01000
C2590       C  0.48528481  0.11793879  0.70983941    -0.10900
C2591       C  0.49417560  0.13355368  0.68528051     0.03200
C2592       C  0.51047432  0.15987910  0.68837255     0.00900
C2593       C  0.51944638  0.16768730  0.71666772    -0.10900
C2594       C  0.50898552  0.15322608  0.74096379     0.03100
H2595       H  0.47153571  0.09883969  0.70728352     0.16100
H2596       H  0.53534298  0.18450148  0.72046371     0.16100
C2597       C  0.51472797  0.16579395  0.76907035     0.37700
C2598       C  0.48713678  0.12127192  0.65727881     0.37600
N2599       N  0.51929904  0.17593843  0.79158775    -0.42600
N2600       N  0.48162296  0.11123101  0.63489577    -0.42600
C2601       C  0.43726303  0.07708249  0.82029896     0.01000
C2602       C  0.40690388  0.07522073  0.82293671    -0.10900
C2603       C  0.39401508  0.06772271  0.84900438     0.03200
C2604       C  0.41053576  0.05394011  0.87139058     0.00900
C2605       C  0.44115439  0.05546951  0.86917855    -0.10900
C2606       C  0.45449080  0.06703872  0.84423498     0.03100
H2607       H  0.39268442  0.08127980  0.80497040     0.16100
H2608       H  0.45498118  0.04857155  0.88730809     0.16100
C2609       C  0.48572777  0.06855356  0.84426767     0.37700
C2610       C  0.36403671  0.07602823  0.85251611     0.37600
N2611       N  0.51084493  0.06924053  0.84476197    -0.42600
N2612       N  0.34004517  0.08272297  0.85517902    -0.42600
C2613       C  0.76701335  0.52731320  0.31816697     0.01000
C2614       C  0.73684198  0.52666345  0.32035256    -0.10900
C2615       C  0.71852264  0.53215080  0.29631162     0.03200
C2616       C  0.73030409  0.54036057  0.26940396     0.00900
C2617       C  0.76071273  0.54153702  0.26732376    -0.10900
C2618       C  0.77904335  0.53499748  0.29146112     0.03100
H2619       H  0.72750129  0.52174870  0.34107369     0.16100
H2620       H  0.77005691  0.54724303  0.24674389     0.16100
C2621       C  0.81008051  0.53620397  0.28855779     0.37700
C2622       C  0.68799109  0.52664587  0.29973377     0.37600
N2623       N  0.83501185  0.53715539  0.28629601    -0.42600
N2624       N  0.66376966  0.52147985  0.30332833    -0.42600
C2625       C  0.61757578  0.56908176  0.22655503     0.01000
C2626       C  0.62058822  0.56939806  0.25704376    -0.10900
C2627       C  0.60607869  0.58975517  0.27384888     0.03200
C2628       C  0.58626854  0.60937074  0.26054795     0.00900
C2629       C  0.58088785  0.60734056  0.23057002    -0.10900
C2630       C  0.59536032  0.58688809  0.21375865     0.03100
H2631       H  0.63422873  0.55337001  0.26794192     0.16100
H2632       H  0.56499543  0.62154434  0.22010186     0.16100
C2633       C  0.58389885  0.58231473  0.18476252     0.37700
C2634       C  0.61118793  0.58951484  0.30485101     0.37600
N2635       N  0.57411431  0.57850803  0.16174292    -0.42600
N2636       N  0.61523089  0.58959565  0.32969877    -0.42600
C2637       C  0.59981516  0.44843594  0.24220185     0.01000
C2638       C  0.59939607  0.42032653  0.22996099    -0.10900
C2639       C  0.58404824  0.39734428  0.24264134     0.03200
C2640       C  0.56754189  0.40259417  0.26710844     0.00900
C2641       C  0.56833222  0.43013357  0.27984280    -0.10900
C2642       C  0.58522321  0.45262978  0.26849935     0.03100
H2643       H  0.61053623  0.41628669  0.21009039     0.16100
H2644       H  0.55531255  0.43419160  0.29855510     0.16100
C2645       C  0.58774814  0.47907292  0.28513069     0.37700
C2646       C  0.58483792  0.36874258  0.22980340     0.37600
N2647       N  0.58966415  0.50015613  0.29868218    -0.42600
N2648       N  0.58553966  0.34573002  0.21970209    -0.42600
C2649       C  0.81041624  0.79384428  0.01136176     0.01000
C2650       C  0.83017356  0.79619425  0.03496753    -0.10900
C2651       C  0.84500468  0.77164699  0.04587975     0.03200
C2652       C  0.84318450  0.74507676  0.03068721     0.00900
C2653       C  0.82119445  0.74222205  0.00897523    -0.10900
C2654       C  0.80443154  0.76615706  0.99988277     0.03100
H2655       H  0.83373189  0.81713621  0.04515337     0.16100
H2656       H  0.81743362  0.72173216  0.99812391     0.16100
C2657       C  0.78059881  0.76165240  0.97947689     0.37700
C2658       C  0.86058290  0.77381178  0.07336477     0.37600
N2659       N  0.76120576  0.75778721  0.96348922    -0.42600
N2660       N  0.87266775  0.77532901  0.09562711    -0.42600
C2661       C  0.98663395  0.77056108  0.88159920     0.01000
C2662       C  0.98445564  0.74013343  0.87951248    -0.10900
C2663       C  0.96838614  0.72413425  0.89942054     0.03200
C2664       C  0.95434877  0.73884725  0.92177637     0.00900
C2665       C  0.95391472  0.76949232  0.92171389    -0.10900
C2666       C  0.96998487  0.78543805  0.90180804     0.03100
H2667       H  0.99760642  0.72864793  0.86423585     0.16100
H2668       H  0.94282315  0.78081492  0.93867105     0.16100
C2669       C  0.97150849  0.81683740  0.90437711     0.37700
C2670       C  0.96962146  0.69264942  0.89853777     0.37600
N2671       N  0.97281869  0.84199433  0.90641874    -0.42600
N2672       N  0.97063960  0.66739660  0.89772869    -0.42600
C2673       C  0.96413554  0.72250860  0.04614920     0.01000
C2674       C  0.95550295  0.72726545  0.07469333    -0.10900
C2675       C  0.97341910  0.74043319  0.09579792     0.03200
C2676       C  0.00018576  0.75293444  0.08813623     0.00900
C2677       C  0.00885989  0.74895010  0.05934713    -0.10900
C2678       C  0.99254632  0.73192080  0.03947218     0.03100
H2679       H  0.93526499  0.71852573  0.08140486     0.16100
H2680       H  0.02925848  0.75786160  0.05242032     0.16100
C2681       C  0.00713882  0.72224655  0.01408384     0.37700
C2682       C  0.96482801  0.73715972  0.12544820     0.37600
N2683       N  0.01933881  0.71451684  0.99399081    -0.42600
N2684       N  0.95734884  0.73355802  0.14893038    -0.42600
C2685       C  0.81849457  0.18275235  0.02472156     0.01000
C2686       C  0.80466403  0.20943423  0.01882132    -0.10900
C2687       C  0.82005060  0.23588097  0.02000202     0.03200
C2688       C  0.85035415  0.23589525  0.02676090     0.00900
C2689       C  0.86384908  0.20883913  0.03330655    -0.10900
C2690       C  0.84815399  0.18259345  0.03251892     0.03100
H2691       H  0.78178419  0.20950400  0.01274467     0.16100
H2692       H  0.88691190  0.20793913  0.03840524     0.16100
C2693       C  0.86284628  0.15547384  0.03941017     0.37700
C2694       C  0.80362102  0.26224895  0.01447008     0.37600
N2695       N  0.87448146  0.13367065  0.04514173    -0.42600
N2696       N  0.78953527  0.28276095  0.00965841    -0.42600
C2697       C  0.01585076  0.29621637  0.89348249     0.01000
C2698       C  0.99642424  0.27422795  0.90191966    -0.10900
C2699       C  0.97763912  0.27887241  0.92434558     0.03200
C2700       C  0.97859100  0.30557891  0.93879917     0.00900
C2701       C  0.99664926  0.32820831  0.92950978    -0.10900
C2702       C  0.01525502  0.32376678  0.90668907     0.03100
H2703       H  0.99713106  0.25278800  0.89227430     0.16100
H2704       H  0.99647700  0.34901967  0.94049404     0.16100
C2705       C  0.03408509  0.34722602  0.89777383     0.37700
C2706       C  0.95806675  0.25584736  0.93276937     0.37600
N2707       N  0.04938403  0.36586983  0.89064209    -0.42600
N2708       N  0.94229337  0.23739188  0.93934928    -0.42600
C2709       C  0.95777720  0.29043936  0.05770792     0.01000
C2710       C  0.97408491  0.30546292  0.07912566    -0.10900
C2711       C  0.99356166  0.29087132  0.09806873     0.03200
C2712       C  0.99735451  0.26042503  0.09585181     0.00900
C2713       C  0.98313661  0.24566547  0.07319422    -0.10900
C2714       C  0.96428924  0.26040982  0.05366003     0.03100
H2715       H  0.97209203  0.32886300  0.08121883     0.16100
H2716       H  0.98656676  0.22234780  0.07095705     0.16100
C2717       C  0.95251664  0.24402965  0.02949960     0.37700
C2718       C  0.00866524  0.30794194  0.11980770     0.37600
N2719       N  0.94327269  0.23072925  0.01016039    -0.42600
N2720       N  0.02040698  0.32260243  0.13671746    -0.42600
C2721       C  0.72179811  0.47729231  0.74731280     0.01000
C2722       C  0.75036125  0.48787549  0.74455613    -0.10900
C2723       C  0.76263849  0.49226160  0.71744038     0.03200
C2724       C  0.74615200  0.48678635  0.69191030     0.00900
C2725       C  0.71826600  0.47511395  0.69430152    -0.10900
C2726       C  0.70613407  0.46974242  0.72137932     0.03100
H2727       H  0.76355523  0.49218172  0.76384432     0.16100
H2728       H  0.70622029  0.46939197  0.67463655     0.16100
C2729       C  0.67826266  0.45549973  0.72074571     0.37700
C2730       C  0.79293391  0.50000137  0.71663615     0.37600
N2731       N  0.65621470  0.44342559  0.71883814    -0.42600
N2732       N  0.81742637  0.50558912  0.71666018    -0.42600
C2733       C  0.62528289  0.45262677  0.81510127     0.01000
C2734       C  0.60788953  0.43477938  0.83261405    -0.10900
C2735       C  0.58808197  0.41489294  0.82049326     0.03200
C2736       C  0.58469008  0.41329417  0.79023465     0.00900
C2737       C  0.59844375  0.43392958  0.77284771    -0.10900
C2738       C  0.61754631  0.45434092  0.78509240     0.03100
H2739       H  0.60843914  0.43684439  0.85570495     0.16100
H2740       H  0.59427808  0.43400891  0.74960522     0.16100
C2741       C  0.62743951  0.47775673  0.76659556     0.37700
C2742       C  0.57244974  0.39568749  0.83957352     0.37600
N2743       N  0.63523017  0.49682386  0.75206475    -0.42600
N2744       N  0.56027406  0.38025534  0.85511565    -0.42600
C2745       C  0.56612993  0.61808395  0.80201081     0.01000
C2746       C  0.56284663  0.59187858  0.78721170    -0.10900
C2747       C  0.58214943  0.56897678  0.79227345     0.03200
C2748       C  0.60438919  0.57159918  0.81402407     0.00900
C2749       C  0.60666772  0.59767142  0.82977106    -0.10900
C2750       C  0.58799193  0.62105514  0.82356990     0.03100
H2751       H  0.54628085  0.59005662  0.77014465     0.16100
H2752       H  0.62315924  0.59987730  0.84680641     0.16100
C2753       C  0.59159127  0.64789043  0.83940506     0.37700
C2754       C  0.57932826  0.54432431  0.77317228     0.37600
N2755       N  0.59433862  0.66950016  0.85197165    -0.42600
N2756       N  0.57616589  0.52493548  0.75751521    -0.42600
C2757       C  0.76322400  0.37955595  0.87829963     0.01000
C2758       C  0.75963128  0.34864278  0.87731897    -0.10900
C2759       C  0.75901001  0.33248000  0.85097033     0.03200
C2760       C  0.76448163  0.34630116  0.82407417     0.00900
C2761       C  0.76558479  0.37738944  0.82470648    -0.10900
C2762       C  0.76445650  0.39363692  0.85088240     0.03100
H2763       H  0.75968912  0.33641828  0.89745023     0.16100
H2764       H  0.76810930  0.38936131  0.80455057     0.16100
C2765       C  0.76664081  0.42504226  0.84929985     0.37700
C2766       C  0.75245353  0.30168105  0.85217491     0.37600
N2767       N  0.76828081  0.45026027  0.84825529    -0.42600
N2768       N  0.74674460  0.27704807  0.85296332    -0.42600
C2769       C  0.82226491  0.36523723  0.89776097     0.01000
C2770       C  0.81878766  0.33677745  0.90905929    -0.10900
C2771       C  0.82022425  0.31184073  0.89127654     0.03200
C2772       C  0.82544731  0.31469578  0.86110161     0.00900
C2773       C  0.83269401  0.34284814  0.85082665    -0.10900
C2774       C  0.83107944  0.36775903  0.86868388     0.03100
H2775       H  0.81195487  0.33412394  0.93120054     0.16100
H2776       H  0.83810596  0.34573267  0.82828846     0.16100
C2777       C  0.83650314  0.39612945  0.85604293     0.37700
C2778       C  0.81546666  0.28367841  0.90474909     0.37600
N2779       N  0.84087244  0.41886766  0.84583319    -0.42600
N2780       N  0.81170315  0.26123317  0.91583627    -0.42600
C2781       C  0.73674974  0.42005734  0.93479935     0.01000
C2782       C  0.72940119  0.44641375  0.94842608    -0.10900
C2783       C  0.70039620  0.45420055  0.95084801     0.03200
C2784       C  0.68085395  0.44115239  0.93114661     0.00900
C2785       C  0.68533787  0.41132376  0.92642671    -0.10900
C2786       C  0.71365721  0.40035900  0.92875150     0.03100
H2787       H  0.74519728  0.46219724  0.95532388     0.16100
H2788       H  0.66811451  0.39790039  0.91721914     0.16100
C2789       C  0.71737700  0.36914109  0.92854366     0.37700
C2790       C  0.69304457  0.48102875  0.96506295     0.37600
N2791       N  0.71870460  0.34390435  0.92983762    -0.42600
N2792       N  0.68727480  0.50250231  0.97657752    -0.42600
C2793       C  0.83679705  0.39350778  0.95492331     0.01000
C2794       C  0.82706528  0.37527321  0.97679629    -0.10900
C2795       C  0.84550819  0.35632606  0.99181750     0.03200
C2796       C  0.87486093  0.35327983  0.98355074     0.00900
C2797       C  0.88511694  0.37339280  0.96265940    -0.10900
C2798       C  0.86619543  0.39285421  0.94788402     0.03100
H2799       H  0.80417372  0.37450096  0.98093978     0.16100
H2800       H  0.90799034  0.37461892  0.95823956     0.16100
C2801       C  0.87704115  0.41151781  0.92526802     0.37700
C2802       C  0.83289906  0.34211705  0.01639858     0.37600
N2803       N  0.88578103  0.42646324  0.90710607    -0.42600
N2804       N  0.82116805  0.33132764  0.03555416    -0.42600
C2805       C  0.78009337  0.61003308  0.85571101     0.01000
C2806       C  0.75485203  0.62721924  0.85291099    -0.10900
C2807       C  0.75118956  0.64814562  0.83027724     0.03200
C2808       C  0.77285648  0.65189094  0.80921781     0.00900
C2809       C  0.79604292  0.63177182  0.81006540    -0.10900
C2810       C  0.79963504  0.61108159  0.83267059     0.03100
H2811       H  0.73952832  0.62662902  0.87027785     0.16100
H2812       H  0.81239029  0.63300428  0.79367818     0.16100
C2813       C  0.82596587  0.59402720  0.83395046     0.37700
C2814       C  0.72531460  0.66589288  0.82989333     0.37600
N2815       N  0.84747384  0.58095780  0.83484993    -0.42600
N2816       N  0.70448916  0.68003084  0.82971748    -0.42600
C2817       C  0.81792268  0.65037466  0.88508645     0.01000
C2818       C  0.84269667  0.65301591  0.86802345    -0.10900
C2819       C  0.84619527  0.67644340  0.84774450     0.03200
C2820       C  0.82448938  0.69846178  0.84313951     0.00900
C2821       C  0.80049051  0.69672986  0.86146334    -0.10900
C2822       C  0.79740401  0.67360304  0.88224213     0.03100
H2823       H  0.85885835  0.63581863  0.86943772     0.16100
H2824       H  0.78423278  0.71383564  0.86000930     0.16100
C2825       C  0.77258133  0.67390668  0.90056226     0.37700
C2826       C  0.87223553  0.67677115  0.83112309     0.37600
N2827       N  0.75282278  0.67397153  0.91546460    -0.42600
N2828       N  0.89319093  0.67716368  0.81790076    -0.42600
C2829       C  0.76295322  0.55743869  0.89246256     0.01000
C2830       C  0.73393557  0.56287141  0.89903010    -0.10900
C2831       C  0.71083025  0.54902904  0.88388799     0.03200
C2832       C  0.71635635  0.52910919  0.86120925     0.00900
C2833       C  0.74571421  0.52313456  0.85576417    -0.10900
C2834       C  0.76857901  0.53742716  0.87033277     0.03100
H2835       H  0.72924177  0.57893439  0.91534442     0.16100
H2836       H  0.75147345  0.50657279  0.84058997     0.16100
C2837       C  0.79767702  0.53102370  0.86160726     0.37700
C2838       C  0.68177180  0.55511768  0.89295844     0.37600
N2839       N  0.82074323  0.52497672  0.85442173    -0.42600
N2840       N  0.65858989  0.56011792  0.90053390    -0.42600
C2841       C  0.83996628  0.62080883  0.94529836     0.01000
C2842       C  0.83868323  0.65118783  0.94854377    -0.10900
C2843       C  0.86208995  0.66698622  0.95993435     0.03200
C2844       C  0.88599871  0.65217919  0.97349033     0.00900
C2845       C  0.88799391  0.62175269  0.96902565    -0.10900
C2846       C  0.86534929  0.60608784  0.95509764     0.03100
H2847       H  0.81965740  0.66305456  0.94071918     0.16100
H2848       H  0.90763771  0.61013497  0.97536509     0.16100
C2849       C  0.86948438  0.57538210  0.94984167     0.37700
C2850       C  0.86097791  0.69844555  0.95634034     0.37600
N2851       N  0.87316903  0.55078275  0.94570722    -0.42600
N2852       N  0.85994839  0.72357011  0.95319480    -0.42600
C2853       C  0.77427076  0.64204950  0.14959316     0.01000
C2854       C  0.78813014  0.63450234  0.17619677    -0.10900
C2855       C  0.78762661  0.65309835  0.20024193     0.03200
C2856       C  0.77409809  0.68088788  0.19806451     0.00900
C2857       C  0.75823912  0.68750137  0.17223129    -0.10900
C2858       C  0.75796819  0.66821834  0.14836835     0.03100
H2859       H  0.80077061  0.61452912  0.17761229     0.16100
H2860       H  0.74556091  0.70744310  0.17087380     0.16100
C2861       C  0.74113396  0.67568414  0.12259383     0.37700
C2862       C  0.80108883  0.64298681  0.22718591     0.37600
N2863       N  0.72745417  0.68149274  0.10192030    -0.42600
N2864       N  0.81153964  0.63470468  0.24884842    -0.42600
C2865       C  0.82751609  0.71199240  0.16121166     0.01000
C2866       C  0.81370272  0.71405175  0.13365798    -0.10900
C2867       C  0.81288357  0.69020301  0.11455016     0.03200
C2868       C  0.82484061  0.66279654  0.12310571     0.00900
C2869       C  0.84178293  0.66182341  0.14899020    -0.10900
C2870       C  0.84350064  0.68611519  0.16775798     0.03100
H2871       H  0.80304180  0.73430472  0.12711896     0.16100
H2872       H  0.85125297  0.64115168  0.15601409     0.16100
C2873       C  0.85989700  0.68299948  0.19468833     0.37700
C2874       C  0.79772246  0.69372464  0.08691607     0.37600
N2875       N  0.87309514  0.68054612  0.21628203    -0.42600
N2876       N  0.78582978  0.69659167  0.06464371    -0.42600
C2877       C  0.74413133  0.59364372  0.11351886     0.01000
C2878       C  0.73688230  0.59117605  0.14265119    -0.10900
C2879       C  0.70833633  0.59384808  0.15079339     0.03200
C2880       C  0.68574854  0.58992418  0.13013122     0.00900
C2881       C  0.69261407  0.59078400  0.10065414    -0.10900
C2882       C  0.72146283  0.59453209  0.09223361     0.03100
H2883       H  0.75378785  0.59025043  0.15939355     0.16100
H2884       H  0.67549802  0.58759904  0.08439157     0.16100
C2885       C  0.72670401  0.60015541  0.06208553     0.37700
C2886       C  0.70277402  0.60127830  0.18033964     0.37600
N2887       N  0.72994234  0.60504402  0.03776259    -0.42600
N2888       N  0.69861194  0.60884017  0.20366866    -0.42600
C2889       C  0.84670789  0.61507226  0.07882097     0.01000
C2890       C  0.85710911  0.64299179  0.07255368    -0.10900
C2891       C  0.88608459  0.64935764  0.07789355     0.03200
C2892       C  0.90693317  0.62707290  0.07628290     0.00900
C2893       C  0.89694798  0.59809491  0.07933544    -0.10900
C2894       C  0.86717383  0.59212436  0.08253480     0.03100
H2895       H  0.84203866  0.66096237  0.06979721     0.16100
H2896       H  0.91227767  0.58024812  0.07787399     0.16100
C2897       C  0.85879141  0.56257921  0.08922381     0.37700
C2898       C  0.89227584  0.67672043  0.09174842     0.37600
N2899       N  0.85319953  0.53850046  0.09453730    -0.42600
N2900       N  0.89454864  0.69811431  0.10472664    -0.42600
C2901       C  0.79551902  0.36550310  0.14397856     0.01000
C2902       C  0.77455400  0.34324900  0.14211096    -0.10900
C2903       C  0.77537615  0.31903290  0.16100327     0.03200
C2904       C  0.79838675  0.31543388  0.18161233     0.00900
C2905       C  0.82107375  0.33613712  0.18150385    -0.10900
C2906       C  0.81971165  0.36107166  0.16306990     0.03100
H2907       H  0.75587103  0.34635416  0.12757833     0.16100
H2908       H  0.84019522  0.33246364  0.19529931     0.16100
C2909       C  0.84331950  0.38173719  0.16397726     0.37700
C2910       C  0.75177887  0.29828332  0.15929818     0.37600
N2911       N  0.86249930  0.39808691  0.16461885    -0.42600
N2912       N  0.73265036  0.28190362  0.15814377    -0.42600
C2913       C  0.74528324  0.35384713  0.22071222     0.01000
C2914       C  0.76856523  0.37371864  0.22225108    -0.10900
C2915       C  0.77280769  0.39512385  0.20036335     0.03200
C2916       C  0.75419958  0.39684082  0.17525107     0.00900
C2917       C  0.72963572  0.37844379  0.17480288    -0.10900
C2918       C  0.72498867  0.35745824  0.19714351     0.03100
H2919       H  0.78340203  0.37282046  0.24090420     0.16100
H2920       H  0.71528650  0.37875717  0.15577983     0.16100
C2921       C  0.70021116  0.33830693  0.19427691     0.37700
C2922       C  0.79710084  0.41482525  0.20385876     0.37600
N2923       N  0.68049111  0.32274615  0.19191407    -0.42600
N2924       N  0.81644895  0.43074281  0.20695079    -0.42600
C2925       C  0.69057931  0.48504821  0.16860086     0.01000
C2926       C  0.68940211  0.47970156  0.13839251    -0.10900
C2927       C  0.71176644  0.46442769  0.12475033     0.03200
C2928       C  0.73635677  0.45511175  0.14114872     0.00900
C2929       C  0.73636437  0.45933619  0.17132117    -0.10900
C2930       C  0.71214811  0.47009701  0.18502189     0.03100
H2931       H  0.67075606  0.48682696  0.12538275     0.16100
H2932       H  0.75459764  0.45214322  0.18476351     0.16100
C2933       C  0.70932624  0.46390177  0.21562097     0.37700
C2934       C  0.70829348  0.45734735  0.09451016     0.37600
N2935       N  0.70705715  0.45882886  0.24006752    -0.42600
N2936       N  0.70537439  0.45141721  0.07030855    -0.42600
C2937       C  0.87835184  0.38174400  0.08611748     0.01000
C2938       C  0.87389547  0.41158783  0.09072956    -0.10900
C2939       C  0.84635792  0.42215194  0.09723255     0.03200
C2940       C  0.82215913  0.40312428  0.09592950     0.00900
C2941       C  0.82677032  0.37353337  0.09012718    -0.10900
C2942       C  0.85473870  0.36246394  0.08828539     0.03100
H2943       H  0.89199723  0.42658299  0.08887899     0.16100
H2944       H  0.80858691  0.35846365  0.08973132     0.16100
C2945       C  0.85871564  0.33119361  0.08826308     0.37700
C2946       C  0.84437717  0.45167519  0.10748112     0.37600
N2947       N  0.86151324  0.30606402  0.08886225    -0.42600
N2948       N  0.84373355  0.47521505  0.11629255    -0.42600
C2949       C  0.22394287  0.28098150  0.99177459     0.01000
C2950       C  0.21784241  0.25625467  0.00859572    -0.10900
C2951       C  0.23972383  0.23591963  0.01565771     0.03200
C2952       C  0.26896363  0.24247523  0.00936469     0.00900
C2953       C  0.27448702  0.26695588  0.99163902    -0.10900
C2954       C  0.25179443  0.28465988  0.98112852     0.03100
H2955       H  0.19582035  0.25254039  0.01544352     0.16100
H2956       H  0.29629113  0.27097884  0.98438909     0.16100
C2957       C  0.25596083  0.30296425  0.95610675     0.37700
C2958       C  0.23083734  0.20743869  0.02561392     0.37600
N2959       N  0.25849804  0.31639133  0.93497231    -0.42600
N2960       N  0.22281453  0.18452998  0.03264906    -0.42600
C2961       C  0.06438407  0.25655210  0.10828835     0.01000
C2962       C  0.07443387  0.28338086  0.11861413    -0.10900
C2963       C  0.08863458  0.30294548  0.10046812     0.03200
C2964       C  0.09471307  0.29473517  0.07172497     0.00900
C2965       C  0.08691713  0.26639159  0.06263352    -0.10900
C2966       C  0.07096591  0.24782684  0.08025047     0.03100
H2967       H  0.06867948  0.29032663  0.14000738     0.16100
H2968       H  0.09216926  0.25889965  0.04129888     0.16100
C2969       C  0.05998951  0.22068676  0.06856555     0.37700
C2970       C  0.09384717  0.33194929  0.11144337     0.37600
N2971       N  0.05080138  0.19908584  0.05925922    -0.42600
N2972       N  0.09781651  0.35506886  0.12069201    -0.42600
C2973       C  0.11484180  0.32583465  0.95154015     0.01000
C2974       C  0.08718182  0.31321755  0.95449258    -0.10900
C2975       C  0.07466320  0.29587560  0.93278535     0.03200
C2976       C  0.08481643  0.29779710  0.90436486     0.00900
C2977       C  0.11124856  0.31225699  0.90032437    -0.10900
C2978       C  0.12736178  0.32384473  0.92369803     0.03100
H2979       H  0.07500519  0.31604964  0.97372548     0.16100
H2980       H  0.11998468  0.31409884  0.87898783     0.16100
C2981       C  0.15691040  0.33221072  0.91790426     0.37700
C2982       C  0.05474761  0.27333108  0.94156720     0.37600
N2983       N  0.18054936  0.33852823  0.91272075    -0.42600
N2984       N  0.03981803  0.25467058  0.94940867    -0.42600
C2985       C  0.36721247  0.54335507  0.75119441     0.01000
C2986       C  0.38235485  0.53202643  0.72795854    -0.10900
C2987       C  0.36831338  0.52765740  0.70096846     0.03200
C2988       C  0.33833806  0.53352530  0.69734633     0.00900
C2989       C  0.32335573  0.54505343  0.72069074    -0.10900
C2990       C  0.33773965  0.55080549  0.74710711     0.03100
H2991       H  0.40504941  0.52636796  0.73103735     0.16100
H2992       H  0.30046396  0.55012767  0.71798623     0.16100
C2993       C  0.32228692  0.56569676  0.76928165     0.37700
C2994       C  0.38525466  0.51817035  0.67708423     0.37600
N2995       N  0.30986535  0.57824748  0.78666260    -0.42600
N2996       N  0.39907594  0.51076806  0.65797884    -0.42600
C2997       C  0.48452958  0.45174837  0.80705306     0.01000
C2998       C  0.49654792  0.45592992  0.77976997    -0.10900
C2999       C  0.51331901  0.43421461  0.76765560     0.03200
C3000       C  0.51784975  0.40771707  0.78281706     0.00900
C3001       C  0.50523183  0.40298851  0.80959483    -0.10900
C3002       C  0.48896860  0.42497023  0.82209976     0.03100
H3003       H  0.49284423  0.47626999  0.76796667     0.16100
H3004       H  0.50915295  0.38258697  0.82124633     0.16100
C3005       C  0.47874664  0.42016499  0.85101584     0.37700
C3006       C  0.52608718  0.43974704  0.73993135     0.37600
N3007       N  0.47063717  0.41621310  0.87422238    -0.42600
N3008       N  0.53632608  0.44420007  0.71772607    -0.42600
C3009       C  0.46453048  0.57418794  0.82041936     0.01000
C3010       C  0.47956775  0.59217666  0.84052285    -0.10900
C3011       C  0.49699281  0.61540048  0.83152266     0.03200
C3012       C  0.49929629  0.62170296  0.80183433     0.00900
C3013       C  0.48683896  0.60244381  0.78167287    -0.10900
C3014       C  0.47108795  0.57792651  0.79075074     0.03100
H3015       H  0.47863170  0.58791901  0.86352366     0.16100
H3016       H  0.49096633  0.60562007  0.75883769     0.16100
C3017       C  0.46414473  0.55604102  0.76937955     0.37700
C3018       C  0.51271994  0.63203396  0.85325061     0.37600
N3019       N  0.45909509  0.53846234  0.75213320    -0.42600
N3020       N  0.52536625  0.64506512  0.87085953    -0.42600
C3021       C  0.25315336  0.85582031  0.01591325     0.01000
C3022       C  0.22676277  0.85517705  0.03027499    -0.10900
C3023       C  0.21033883  0.82936473  0.03333096     0.03200
C3024       C  0.21998175  0.80245200  0.02149659     0.00900
C3025       C  0.24675057  0.80336211  0.00709821    -0.10900
C3026       C  0.26315179  0.82936100  0.00431305     0.03100
H3027       H  0.21907948  0.87528607  0.03963061     0.16100
H3028       H  0.25556900  0.78344259  0.99851496     0.16100
C3029       C  0.29100002  0.82770707  0.99100266     0.37700
C3030       C  0.18403698  0.83225915  0.04912257     0.37600
N3031       N  0.31343359  0.82587474  0.98052788    -0.42600
N3032       N  0.16338658  0.83567525  0.06236116    -0.42600
C3033       C  0.07007774  0.75121009  0.08981581     0.01000
C3034       C  0.08586804  0.77188147  0.07430908    -0.10900
C3035       C  0.10895520  0.76338446  0.05758737     0.03200
C3036       C  0.11872713  0.73398333  0.05882280     0.00900
C3037       C  0.10082288  0.71312711  0.07263645    -0.10900
C3038       C  0.07638311  0.72152725  0.08753154     0.03100
H3039       H  0.07969890  0.79475424  0.07496124     0.16100
H3040       H  0.10467759  0.68994611  0.07059440     0.16100
C3041       C  0.05741043  0.69950581  0.09924647     0.37700
C3042       C  0.11908957  0.78442297  0.03668537     0.37600
N3043       N  0.04181603  0.68195498  0.10816813    -0.42600
N3044       N  0.12634722  0.80122623  0.01942199    -0.42600
C3045       C  0.04886892  0.76853985  0.90757247     0.01000
C3046       C  0.05609344  0.73934635  0.90234477    -0.10900
C3047       C  0.07346322  0.72375038  0.92229055     0.03200
C3048       C  0.08403036  0.73782587  0.94730362     0.00900
C3049       C  0.07492241  0.76640282  0.95328889    -0.10900
C3050       C  0.05707817  0.78166403  0.93375881     0.03100
H3051       H  0.04953502  0.72934784  0.88200959     0.16100
H3052       H  0.08259826  0.77719683  0.97283044     0.16100
C3053       C  0.04808973  0.81096619  0.94056387     0.37700
C3054       C  0.07990919  0.69351285  0.91688056     0.37600
N3055       N  0.04061489  0.83431228  0.94618965    -0.42600
N3056       N  0.08464676  0.66915512  0.91249014    -0.42600
C3057       C  0.25448939  0.66769483  0.91221708     0.01000
C3058       C  0.26916872  0.69360816  0.91914460    -0.10900
C3059       C  0.26893628  0.71773438  0.90008713     0.03200
C3060       C  0.25453249  0.71607265  0.87240182     0.00900
C3061       C  0.23692847  0.69135217  0.86712232    -0.10900
C3062       C  0.23642665  0.66764067  0.88697042     0.03100
H3063       H  0.28311383  0.69420184  0.93839130     0.16100
H3064       H  0.22412716  0.69006966  0.84711257     0.16100
C3065       C  0.21873578  0.64250463  0.88010147     0.37700
C3066       C  0.28391799  0.74369425  0.90998394     0.37600
N3067       N  0.20441808  0.62239777  0.87467800    -0.42600
N3068       N  0.29566192  0.76453109  0.91817540    -0.42600
C3069       C  0.30136448  0.63893130  0.88505459     0.01000
C3070       C  0.28612800  0.63245951  0.85920634    -0.10900
C3071       C  0.28800361  0.65015414  0.83433024     0.03200
C3072       C  0.30498906  0.67612996  0.83485529     0.00900
C3073       C  0.32208377  0.68141932  0.86017990    -0.10900
C3074       C  0.32052944  0.66301471  0.88491332     0.03100
H3075       H  0.27049514  0.61479705  0.85925548     0.16100
H3076       H  0.33609747  0.70044406  0.86107341     0.16100
C3077       C  0.33707322  0.67039340  0.91077574     0.37700
C3078       C  0.27144398  0.64100807  0.80898251     0.37600
N3079       N  0.35032665  0.67625916  0.93157426    -0.42600
N3080       N  0.25822463  0.63341350  0.78873789    -0.42600
C3081       C  0.24005959  0.63841522  0.96895853     0.01000
C3082       C  0.21092535  0.63556686  0.95969196    -0.10900
C3083       C  0.19032900  0.65744220  0.96480869     0.03200
C3084       C  0.19848961  0.68328180  0.97986906     0.00900
C3085       C  0.22785512  0.68551988  0.98926999    -0.10900
C3086       C  0.24825209  0.66386719  0.98406528     0.03100
H3087       H  0.20463160  0.61692513  0.94660222     0.16100
H3088       H  0.23517825  0.70352176  0.00247848     0.16100
C3089       C  0.27813504  0.67030366  0.99191439     0.37700
C3090       C  0.16076731  0.65161474  0.95564147     0.37600
N3091       N  0.30180330  0.67678885  0.99800666    -0.42600
N3092       N  0.13725252  0.64616048  0.94805359    -0.42600
C3093       C  0.38350291  0.58174007  0.90813151     0.01000
C3094       C  0.35996416  0.57754501  0.88855430    -0.10900
C3095       C  0.33180800  0.57990657  0.89763307     0.03200
C3096       C  0.32678034  0.59118596  0.92503047     0.00900
C3097       C  0.35004809  0.59663399  0.94449347    -0.10900
C3098       C  0.37846424  0.59083078  0.93646776     0.03100
H3099       H  0.36380034  0.56887159  0.86725147     0.16100
H3100       H  0.34604245  0.60579418  0.96555893     0.16100
C3101       C  0.40200941  0.59346145  0.95750716     0.37700
C3102       C  0.30818010  0.56980277  0.87912039     0.37600
N3103       N  0.42086987  0.59543040  0.97447546    -0.42600
N3104       N  0.28872751  0.56154361  0.86505512    -0.42600
C3105       C  0.28414632  0.37423100  0.89748800     0.01000
C3106       C  0.26112988  0.37386433  0.87673595    -0.10900
C3107       C  0.25858867  0.35133611  0.85584009     0.03200
C3108       C  0.28023730  0.32917054  0.85423995     0.00900
C3109       C  0.30129653  0.32817638  0.87706754    -0.10900
C3110       C  0.30279517  0.34969556  0.89865740     0.03100
H3111       H  0.24630638  0.39224652  0.87553202     0.16100
H3112       H  0.31702344  0.31056071  0.87813989     0.16100
C3113       C  0.32467943  0.34696262  0.92151463     0.37700
C3114       C  0.23369767  0.35194212  0.83618503     0.37600
N3115       N  0.34210115  0.34461688  0.93995562    -0.42600
N3116       N  0.21358709  0.35233764  0.82057364    -0.42600
C3117       C  0.32863802  0.40736754  0.86991826     0.01000
C3118       C  0.30822506  0.41118142  0.84687763    -0.10900
C3119       C  0.30712375  0.39242072  0.82274102     0.03200
C3120       C  0.32836448  0.37020321  0.81953421     0.00900
C3121       C  0.35112555  0.36918096  0.84074193    -0.10900
C3122       C  0.35126082  0.38703650  0.86565468     0.03100
H3123       H  0.29047899  0.42638461  0.84967124     0.16100
H3124       H  0.36847156  0.35343481  0.83857905     0.16100
C3125       C  0.37413049  0.38251756  0.88714336     0.37700
C3126       C  0.28206607  0.39493356  0.80339680     0.37600
N3127       N  0.39293890  0.37806825  0.90375055    -0.42600
N3128       N  0.26171591  0.39699964  0.78821474    -0.42600
C3129       C  0.19291723  0.41010527  0.94562454     0.01000
C3130       C  0.21294822  0.38789780  0.95323517    -0.10900
C3131       C  0.24256985  0.39246813  0.95143711     0.03200
C3132       C  0.25252304  0.41764131  0.93766378     0.00900
C3133       C  0.23266550  0.43920152  0.92785939    -0.10900
C3134       C  0.20295815  0.43604511  0.93288991     0.03100
H3135       H  0.20546320  0.36841933  0.96391990     0.16100
H3136       H  0.24038654  0.45859364  0.91684421     0.16100
C3137       C  0.18330965  0.45980438  0.92608446     0.37700
C3138       C  0.26243821  0.37341185  0.96729487     0.37600
N3139       N  0.16749411  0.47889376  0.92077861    -0.42600
N3140       N  0.27867216  0.35912301  0.98078986    -0.42600
C3141       C  0.38149476  0.49000636  0.86462999     0.01000
C3142       C  0.39240217  0.47072900  0.88652139    -0.10900
C3143       C  0.37409046  0.45772714  0.90683726     0.03200
C3144       C  0.34396175  0.46256677  0.90495770     0.00900
C3145       C  0.33285900  0.48104644  0.88337607    -0.10900
C3146       C  0.35073706  0.49503881  0.86377232     0.03100
H3147       H  0.41564042  0.46739373  0.88900913     0.16100
H3148       H  0.30950124  0.48298892  0.88047319     0.16100
C3149       C  0.33506927  0.51334226  0.84328541     0.37700
C3150       C  0.38658341  0.44001370  0.93002547     0.37600
N3151       N  0.32084838  0.52681098  0.82696644    -0.42600
N3152       N  0.39647874  0.42601319  0.94886109    -0.42600
C3153       C  0.36550287  0.47734756  0.28178664     0.01000
C3154       C  0.38083527  0.47378361  0.30844181    -0.10900
C3155       C  0.36680369  0.47691321  0.33490145     0.03200
C3156       C  0.33711951  0.48420442  0.33504531     0.00900
C3157       C  0.32158253  0.48667817  0.30864235    -0.10900
C3158       C  0.33528058  0.48274747  0.28228367     0.03100
H3159       H  0.40390165  0.46927019  0.30865843     0.16100
H3160       H  0.29852645  0.49140831  0.30876524     0.16100
C3161       C  0.31744347  0.48299606  0.25617745     0.37700
C3162       C  0.38334907  0.47344884  0.36167711     0.37600
N3163       N  0.30272424  0.48300690  0.23548160    -0.42600
N3164       N  0.39668654  0.47059678  0.38313965    -0.42600
C3165       C  0.46770857  0.45008029  0.22485010     0.01000
C3166       C  0.48298471  0.42962643  0.20852754    -0.10900
C3167       C  0.50020117  0.40804118  0.22205462     0.03200
C3168       C  0.50211298  0.40645912  0.25243621     0.00900
C3169       C  0.48973382  0.42842531  0.26872217    -0.10900
C3170       C  0.47354878  0.45073956  0.25527433     0.03100
H3171       H  0.48175958  0.43022107  0.18513883     0.16100
H3172       H  0.49275390  0.42807044  0.29212249     0.16100
C3173       C  0.46370213  0.47396480  0.27351926     0.37700
C3174       C  0.51534404  0.38775009  0.20420358     0.37600
N3175       N  0.45607889  0.49250073  0.28835132    -0.42600
N3176       N  0.52729895  0.37178669  0.18938825    -0.42600
C3177       C  0.48546517  0.56956018  0.23571160     0.01000
C3178       C  0.49174411  0.56506075  0.26526213    -0.10900
C3179       C  0.50857706  0.58495534  0.28050299     0.03200
C3180       C  0.51885886  0.60968558  0.26591356     0.00900
C3181       C  0.51073242  0.61548498  0.23704249    -0.10900
C3182       C  0.49450715  0.59514923  0.22151749     0.03100
H3183       H  0.48395048  0.54561023  0.27616408     0.16100
H3184       H  0.51810298  0.63523061  0.22636019     0.16100
C3185       C  0.48928878  0.60000454  0.19089530     0.37700
C3186       C  0.51559729  0.57928349  0.31073609     0.37600
N3187       N  0.48555056  0.60422496  0.16631921    -0.42600
N3188       N  0.52113849  0.57481633  0.33498074    -0.42600
C3189       C  0.25493949  0.35775018  0.13775533     0.01000
C3190       C  0.27237709  0.33222546  0.13977450    -0.10900
C3191       C  0.27117098  0.31218948  0.16349908     0.03200
C3192       C  0.25081089  0.31580838  0.18552007     0.00900
C3193       C  0.23101140  0.33942291  0.18161510    -0.10900
C3194       C  0.23326984  0.36033441  0.15863766     0.03100
H3195       H  0.28918526  0.32943340  0.12410532     0.16100
H3196       H  0.21402289  0.34204978  0.19712110     0.16100
C3197       C  0.21403329  0.38517196  0.15765230     0.37700
C3198       C  0.29204884  0.28869479  0.16544125     0.37600
N3199       N  0.19860539  0.40512766  0.15660555    -0.42600
N3200       N  0.30898771  0.27004693  0.16728760    -0.42600
C3201       C  0.30530973  0.38702086  0.15919395     0.01000
C3202       C  0.28924017  0.39383925  0.18348477    -0.10900
C3203       C  0.29039029  0.37647924  0.20858676     0.03200
C3204       C  0.30861101  0.35138768  0.21028612     0.00900
C3205       C  0.32797551  0.34721638  0.18746869    -0.10900
C3206       C  0.32633399  0.36472323  0.16203389     0.03100
H3207       H  0.27272238  0.41064937  0.18129770     0.16100
H3208       H  0.34319967  0.32916696  0.18863912     0.16100
C3209       C  0.34370853  0.35720477  0.13776595     0.37700
C3210       C  0.27060200  0.38416629  0.23093469     0.37600
N3211       N  0.35750452  0.35112579  0.11818085    -0.42600
N3212       N  0.25446350  0.39066978  0.24847275    -0.42600
C3213       C  0.32838168  0.43128104  0.11638340     0.01000
C3214       C  0.35011628  0.42272250  0.09756170    -0.10900
C3215       C  0.37935408  0.42647979  0.10560882     0.03200
C3216       C  0.38656380  0.43715587  0.13320964     0.00900
C3217       C  0.36446827  0.44381668  0.15240199    -0.10900
C3218       C  0.33578657  0.44349696  0.14316799     0.03100
H3219       H  0.34428995  0.41218739  0.07730309     0.16100
H3220       H  0.37004360  0.45275775  0.17341248     0.16100
C3221       C  0.31398225  0.45487969  0.16177021     0.37700
C3222       C  0.40171314  0.41890796  0.08587316     0.37600
N3223       N  0.29601313  0.46369251  0.17627224    -0.42600
N3224       N  0.41978580  0.41262402  0.07021905    -0.42600
C3225       C  0.23007886  0.39455493  0.08070594     0.01000
C3226       C  0.22301436  0.36481113  0.07856061    -0.10900
C3227       C  0.19709603  0.35555287  0.06573265     0.03200
C3228       C  0.18035174  0.37557676  0.04871267     0.00900
C3229       C  0.18501334  0.40555958  0.05382205    -0.10900
C3230       C  0.20954991  0.41520813  0.06992046     0.03100
H3231       H  0.23793707  0.34819750  0.08661300     0.16100
H3232       H  0.16971303  0.42154989  0.04509932     0.16100
C3233       C  0.21200104  0.44597242  0.07583651     0.37700
C3234       C  0.18994674  0.32484439  0.06862440     0.37600
N3235       N  0.21271459  0.47078368  0.08039252    -0.42600
N3236       N  0.18441737  0.30026756  0.07106621    -0.42600
C3237       C  0.27864763  0.65093052  0.15219968     0.01000
C3238       C  0.25908765  0.65309448  0.17516150    -0.10900
C3239       C  0.25712967  0.67878258  0.19222442     0.03200
C3240       C  0.27422135  0.70377407  0.18620876     0.00900
C3241       C  0.29263852  0.70199902  0.16240938    -0.10900
C3242       C  0.29535708  0.67618337  0.14608050     0.03100
H3243       H  0.24619830  0.63415014  0.18071543     0.16100
H3244       H  0.30522331  0.72108971  0.15650673     0.16100
C3245       C  0.31647209  0.67585086  0.12361820     0.37700
C3246       C  0.23737978  0.67903474  0.21586357     0.37600
N3247       N  0.33345093  0.67556137  0.10564900    -0.42600
N3248       N  0.22171471  0.67927414  0.23499693    -0.42600
C3249       C  0.32294595  0.61499546  0.17967207     0.01000
C3250       C  0.34453219  0.63680160  0.17885083    -0.10900
C3251       C  0.34676499  0.65861725  0.20032397     0.03200
C3252       C  0.32755154  0.65849684  0.22381961     0.00900
C3253       C  0.30903202  0.63425925  0.22654911    -0.10900
C3254       C  0.30652645  0.61292386  0.20505064     0.03100
H3255       H  0.35717634  0.63897307  0.15951492     0.16100
H3256       H  0.29506977  0.63262871  0.24501019     0.16100
C3257       C  0.28272595  0.59267649  0.20730799     0.37700
C3258       C  0.36737240  0.68195401  0.19630418     0.37600
N3259       N  0.26265767  0.57778862  0.20999480    -0.42600
N3260       N  0.38392224  0.70064030  0.19292874    -0.42600
C3261       C  0.20091063  0.64347749  0.08058976     0.01000
C3262       C  0.19967833  0.61457697  0.09038297    -0.10900
C3263       C  0.22480996  0.60069271  0.10090498     0.03200
C3264       C  0.25161028  0.61556755  0.09962417     0.00900
C3265       C  0.25270766  0.64409288  0.08884000    -0.10900
C3266       C  0.22751092  0.65861439  0.08079055     0.03100
H3267       H  0.17916500  0.60294114  0.08941438     0.16100
H3268       H  0.27324230  0.65556750  0.08808775     0.16100
C3269       C  0.22956313  0.68879964  0.07165641     0.37700
C3270       C  0.22185902  0.57212149  0.11396294     0.37600
N3271       N  0.23162523  0.71307331  0.06473357    -0.42600
N3272       N  0.21790960  0.54944281  0.12446651    -0.42600
C3273       C  0.33770476  0.56118765  0.14331012     0.01000
C3274       C  0.36667475  0.56772630  0.13690584    -0.10900
C3275       C  0.38987109  0.55211751  0.15038899     0.03200
C3276       C  0.38409775  0.52965350  0.17085518     0.00900
C3277       C  0.35481749  0.52177014  0.17425742    -0.10900
C3278       C  0.33215057  0.53841884  0.16287551     0.03100
H3279       H  0.37118875  0.58567200  0.12215812     0.16100
H3280       H  0.34879302  0.50232172  0.18599405     0.16100
C3281       C  0.30382665  0.53257915  0.17398958     0.37700
C3282       C  0.41900710  0.55868976  0.14178923     0.37600
N3283       N  0.28167394  0.52676363  0.18372799    -0.42600
N3284       N  0.44230456  0.56379821  0.13450709    -0.42600
C3285       C  0.01077625  0.17775551  0.24341116     0.01000
C3286       C  0.00471148  0.16152390  0.21826239    -0.10900
C3287       C  0.00602759  0.17454575  0.19067214     0.03200
C3288       C  0.01405478  0.20409386  0.18791265     0.00900
C3289       C  0.01863016  0.22069990  0.21294824    -0.10900
C3290       C  0.01667484  0.20794146  0.24055296     0.03100
H3291       H  0.00022619  0.13833054  0.22022440     0.16100
H3292       H  0.02487482  0.24342791  0.21084558     0.16100
C3293       C  0.02305677  0.22579145  0.26549063     0.37700
C3294       C  0.00082029  0.15687643  0.16540246     0.37600
N3295       N  0.02802493  0.24021564  0.28545555    -0.42600
N3296       N  0.99664308  0.14266579  0.14513477    -0.42600
C3297       C  0.07352995  0.08664958  0.30418839     0.01000
C3298       C  0.08703213  0.09587319  0.27866345    -0.10900
C3299       C  0.10256805  0.07661150  0.26149737     0.03200
C3300       C  0.11009743  0.04836067  0.27200885     0.00900
C3301       C  0.09983912  0.04022966  0.29951042    -0.10900
C3302       C  0.08125600  0.05851656  0.31506220     0.03100
H3303       H  0.08580782  0.11837036  0.27162585     0.16100
H3304       H  0.10621339  0.01944390  0.30911340     0.16100
C3305       C  0.07087930  0.04798886  0.34245444     0.37700
C3306       C  0.10799504  0.08619698  0.23228805     0.37600
N3307       N  0.06246410  0.03961118  0.36441113    -0.42600
N3308       N  0.11134295  0.09464026  0.20890522    -0.42600
C3309       C  0.90789826  0.03259830  0.28031429     0.01000
C3310       C  0.90743364  0.03783922  0.31012189    -0.10900
C3311       C  0.93099239  0.05094519  0.32424325     0.03200
C3312       C  0.95499300  0.05968118  0.30816548     0.00900
C3313       C  0.95588321  0.05338109  0.27852255    -0.10900
C3314       C  0.93264018  0.03951601  0.26455901     0.03100
H3315       H  0.88833829  0.03222614  0.32220574     0.16100
H3316       H  0.97451711  0.05984569  0.26616416     0.16100
C3317       C  0.93476346  0.03247568  0.23432015     0.37700
C3318       C  0.93038395  0.05468530  0.35520419     0.37600
N3319       N  0.93677361  0.02676006  0.21012160    -0.42600
N3320       N  0.92995135  0.05754657  0.38005270    -0.42600
C3321       C  0.76216354  0.30514990  0.54149103     0.01000
C3322       C  0.73769593  0.32291213  0.53547377    -0.10900
C3323       C  0.70972258  0.31094955  0.53260038     0.03200
C3324       C  0.70552050  0.28060084  0.53539047     0.00900
C3325       C  0.72976905  0.26269545  0.54164550    -0.10900
C3326       C  0.75788533  0.27471443  0.54482525     0.03100
H3327       H  0.74046664  0.34629496  0.53276259     0.16100
H3328       H  0.72675794  0.23928262  0.54361641     0.16100
C3329       C  0.78185074  0.25561023  0.55243408     0.37700
C3330       C  0.68538469  0.33020784  0.52703699     0.37600
N3331       N  0.80107256  0.24029564  0.55865999    -0.42600
N3332       N  0.66580092  0.34562813  0.52270950    -0.42600
C3333       C  0.82302983  0.42939503  0.44386225     0.01000
C3334       C  0.79534676  0.44186815  0.44042356    -0.10900
C3335       C  0.78980247  0.46377129  0.41980982     0.03200
C3336       C  0.81225132  0.47346825  0.40203408     0.00900
C3337       C  0.83980790  0.46056538  0.40477818    -0.10900
C3338       C  0.84538632  0.43859252  0.42563653     0.03100
H3339       H  0.77815799  0.43476400  0.45443718     0.16100
H3340       H  0.85705731  0.46809748  0.39105168     0.16100
C3341       C  0.87442550  0.42709107  0.42909206     0.37700
C3342       C  0.76109006  0.47639128  0.41784424     0.37600
N3343       N  0.89774349  0.41788953  0.43188836    -0.42600
N3344       N  0.73798799  0.48630637  0.41639090    -0.42600
C3345       C  0.81639785  0.40869142  0.56591267     0.01000
C3346       C  0.82874177  0.41256173  0.59387052    -0.10900
C3347       C  0.81926301  0.43455479  0.61220547     0.03200
C3348       C  0.79506284  0.45198446  0.60392666     0.00900
C3349       C  0.78032844  0.44585657  0.57773170    -0.10900
C3350       C  0.79011703  0.42397461  0.55919832     0.03100
H3351       H  0.84613029  0.39834158  0.60160300     0.16100
H3352       H  0.76030196  0.45740264  0.57232521     0.16100
C3353       C  0.77080724  0.41567863  0.53554289     0.37700
C3354       C  0.83527493  0.43883943  0.63914777     0.37600
N3355       N  0.75504805  0.40912906  0.51674176    -0.42600
N3356       N  0.84861309  0.44222068  0.66047551    -0.42600
C3357       C  0.05583170  0.20128134  0.76860678     0.01000
C3358       C  0.04908350  0.23069423  0.76230976    -0.10900
C3359       C  0.05032756  0.25185919  0.78402531     0.03200
C3360       C  0.05901543  0.24385732  0.81249159     0.00900
C3361       C  0.06656115  0.21462219  0.81859276    -0.10900
C3362       C  0.06499056  0.19338052  0.79697999     0.03100
H3363       H  0.04226858  0.23695728  0.74045916     0.16100
H3364       H  0.07245164  0.20816920  0.84061127     0.16100
C3365       C  0.07335045  0.16375921  0.80423696     0.37700
C3366       C  0.04214208  0.28155333  0.77687361     0.37600
N3367       N  0.08009407  0.14000261  0.81007894    -0.42600
N3368       N  0.03540268  0.30534334  0.77117886    -0.42600
C3369       C  0.13207047  0.09211659  0.72767699     0.01000
C3370       C  0.12389405  0.08507302  0.75598968    -0.10900
C3371       C  0.14256764  0.06953281  0.77444345     0.03200
C3372       C  0.17088448  0.06392994  0.76576217     0.00900
C3373       C  0.18102685  0.07636528  0.74009303    -0.10900
C3374       C  0.16146909  0.08969897  0.72037407     0.03100
H3375       H  0.10180243  0.08874131  0.76253221     0.16100
H3376       H  0.20313514  0.07218607  0.73380172     0.16100
C3377       C  0.17134693  0.09752395  0.69196070     0.37700
C3378       C  0.13092604  0.05617075  0.80009979     0.37600
N3379       N  0.17939585  0.10381913  0.66921375    -0.42600
N3380       N  0.12126111  0.04514639  0.82033285    -0.42600
C3381       C  0.01536417  0.08860380  0.71686391     0.01000
C3382       C  0.01044539  0.08842647  0.74685260    -0.10900
C3383       C  0.98991620  0.06961759  0.75930116     0.03200
C3384       C  0.97374845  0.05004768  0.74178060     0.00900
C3385       C  0.98078974  0.04802489  0.71253679    -0.10900
C3386       C  0.00216867  0.06580288  0.70044718     0.03100
H3387       H  0.02353133  0.10170331  0.76110632     0.16100
H3388       H  0.96932444  0.03266957  0.69876063     0.16100
C3389       C  0.00983244  0.06005791  0.67093134     0.37700
C3390       C  0.98709408  0.06974856  0.79033916     0.37600
N3391       N  0.01579274  0.05552946  0.64722897    -0.42600
N3392       N  0.98511414  0.06983110  0.81526136    -0.42600
C3393       C  0.91066691  0.24343251  0.65456676     0.01000
C3394       C  0.92304858  0.24691028  0.68245928    -0.10900
C3395       C  0.90728790  0.24148535  0.70747563     0.03200
C3396       C  0.87764481  0.23317036  0.70548330     0.00900
C3397       C  0.86614976  0.22618820  0.67773041    -0.10900
C3398       C  0.88244869  0.23118013  0.65244396     0.03100
H3399       H  0.94441509  0.25663200  0.68489475     0.16100
H3400       H  0.84402894  0.21825514  0.67561976     0.16100
C3401       C  0.86942143  0.22476622  0.62450067     0.37700
C3402       C  0.92241523  0.24526818  0.73496657     0.37600
N3403       N  0.85906272  0.21934900  0.60207500    -0.42600
N3404       N  0.93531059  0.24825819  0.75658470    -0.42600
C3405       C  0.89953079  0.30362144  0.64260316     0.01000
C3406       C  0.90095081  0.30734592  0.67325574    -0.10900
C3407       C  0.87623167  0.30416755  0.69117643     0.03200
C3408       C  0.84898786  0.29541398  0.67912946     0.00900
C3409       C  0.84697441  0.29601625  0.64821796    -0.10900
C3410       C  0.87129113  0.30040377  0.63048212     0.03100
H3411       H  0.92210826  0.30893636  0.68388432     0.16100
H3412       H  0.82637379  0.29135136  0.63732886     0.16100
C3413       C  0.86784885  0.29611893  0.59970160     0.37700
C3414       C  0.88002998  0.30853206  0.72188944     0.37600
N3415       N  0.86588408  0.29206394  0.57505417    -0.42600
N3416       N  0.88331461  0.31232876  0.74650073    -0.42600
C3417       C  0.95594452  0.21944065  0.61486110     0.01000
C3418       C  0.96813591  0.21461456  0.64249990    -0.10900
C3419       C  0.96923763  0.18676377  0.65405856     0.03200
C3420       C  0.96861529  0.16322592  0.63489364     0.00900
C3421       C  0.95640215  0.16725408  0.60702223    -0.10900
C3422       C  0.94738874  0.19519808  0.59794522     0.03100
H3423       H  0.97375474  0.23295606  0.65610916     0.16100
H3424       H  0.95449785  0.14887204  0.59249627     0.16100
C3425       C  0.92820597  0.19773356  0.57287697     0.37700
C3426       C  0.97511236  0.18279549  0.68475700     0.37600
N3427       N  0.91201418  0.19859181  0.55325058    -0.42600
N3428       N  0.97937991  0.17973373  0.70942603    -0.42600
C3429       C  0.94901251  0.32891742  0.59802839     0.01000
C3430       C  0.96109053  0.33574706  0.57107144    -0.10900
C3431       C  0.95750246  0.36361196  0.55870766     0.03200
C3432       C  0.93644031  0.38238405  0.57008893     0.00900
C3433       C  0.93191486  0.37917324  0.59995852    -0.10900
C3434       C  0.93984456  0.35304810  0.61436270     0.03100
H3435       H  0.97218019  0.31982728  0.55864309     0.16100
H3436       H  0.92043414  0.39586643  0.61149536     0.16100
C3437       C  0.94351845  0.35368910  0.64539979     0.37700
C3438       C  0.97210989  0.37085006  0.53235185     0.37600
N3439       N  0.94779332  0.35573851  0.67011063    -0.42600
N3440       N  0.98397823  0.37667592  0.51131172    -0.42600
C3441       C  0.91771070  0.23531059  0.36269683     0.01000
C3442       C  0.89949987  0.21071438  0.35843872    -0.10900
C3443       C  0.87882507  0.20933758  0.33490116     0.03200
C3444       C  0.87592629  0.23261870  0.31445413     0.00900
C3445       C  0.89584777  0.25579661  0.31732146    -0.10900
C3446       C  0.91617186  0.25739243  0.34082055     0.03100
H3447       H  0.89947020  0.19374354  0.37501380     0.16100
H3448       H  0.89542851  0.27307220  0.30103179     0.16100
C3449       C  0.93384472  0.28333524  0.34302039     0.37700
C3450       C  0.86000600  0.18421320  0.33271940     0.37600
N3451       N  0.94764089  0.30444190  0.34446971    -0.42600
N3452       N  0.84480711  0.16411894  0.33096986    -0.42600
C3453       C  0.88175721  0.26968548  0.39726561     0.01000
C3454       C  0.85998306  0.24828677  0.39330488    -0.10900
C3455       C  0.83539549  0.25334391  0.37519345     0.03200
C3456       C  0.83208929  0.28020886  0.36024703     0.00900
C3457       C  0.85260159  0.30247278  0.36611443    -0.10900
C3458       C  0.87709908  0.29746732  0.38455133     0.03100
H3459       H  0.86288277  0.22709852  0.40372806     0.16100
H3460       H  0.84911148  0.32406954  0.35673440     0.16100
C3461       C  0.89706945  0.32105573  0.39047818     0.37700
C3462       C  0.81328078  0.23104262  0.37308907     0.37600
N3463       N  0.91297397  0.34002481  0.39557889    -0.42600
N3464       N  0.79539599  0.21330795  0.37155340    -0.42600
C3465       C  0.97317236  0.21354476  0.39895481     0.01000
C3466       C  0.96919417  0.18396391  0.40720217    -0.10900
C3467       C  0.98128428  0.16052129  0.39143525     0.03200
C3468       C  0.99722424  0.16607635  0.36607232     0.00900
C3469       C  0.00298685  0.19579457  0.35979275    -0.10900
C3470       C  0.99047707  0.21890313  0.37467402     0.03100
H3471       H  0.95563167  0.17904466  0.42542262     0.16100
H3472       H  0.01775455  0.20157973  0.34290451     0.16100
C3473       C  0.99593054  0.24788538  0.36356291     0.37700
C3474       C  0.97747391  0.13111633  0.40216475     0.37600
N3475       N  0.00156524  0.27058548  0.35394262    -0.42600
N3476       N  0.97456391  0.10754573  0.41097830    -0.42600
C3477       C  0.90765269  0.28487264  0.45726954     0.01000
C3478       C  0.87685001  0.28366784  0.45811648    -0.10900
C3479       C  0.86054615  0.30536572  0.47179607     0.03200
C3480       C  0.87420338  0.32376912  0.49243508     0.00900
C3481       C  0.90459663  0.31930172  0.49654100    -0.10900
C3482       C  0.92115499  0.30516120  0.47583932     0.03100
H3483       H  0.86495260  0.26668842  0.44702030     0.16100
H3484       H  0.91614540  0.32620174  0.51577823     0.16100
C3485       C  0.95088017  0.31422781  0.47270087     0.37700
C3486       C  0.83031694  0.30852361  0.46326209     0.37600
N3487       N  0.97447030  0.32226100  0.46989129    -0.42600
N3488       N  0.80619143  0.31111359  0.45598206    -0.42600
C3489       C  0.27693870  0.31473961  0.48487445     0.01000
C3490       C  0.26984503  0.28543287  0.49106624    -0.10900
C3491       C  0.29138324  0.26497724  0.49822895     0.03200
C3492       C  0.32064240  0.27331404  0.49795190     0.00900
C3493       C  0.32800219  0.30173311  0.48943806    -0.10900
C3494       C  0.30654817  0.32277950  0.48372879     0.03100
H3495       H  0.24724199  0.27890751  0.49172494     0.16100
H3496       H  0.35056373  0.30797000  0.48898348     0.16100
C3497       C  0.31583252  0.35262633  0.47963059     0.37700
C3498       C  0.28311419  0.23582855  0.50692141     0.37600
N3499       N  0.32364646  0.37648326  0.47653505    -0.42600
N3500       N  0.27648207  0.21249436  0.51406647    -0.42600
C3501       C  0.23883098  0.42951995  0.45746582     0.01000
C3502       C  0.25199330  0.45586010  0.46656585    -0.10900
C3503       C  0.27094940  0.47143560  0.44891857     0.03200
C3504       C  0.27314609  0.46415389  0.41949321     0.00900
C3505       C  0.25513149  0.44154358  0.40887277    -0.10900
C3506       C  0.23927162  0.42346304  0.42746127     0.03100
H3507       H  0.24829282  0.46420715  0.48792670     0.16100
H3508       H  0.25304753  0.43786103  0.38595991     0.16100
C3509       C  0.22363914  0.39914905  0.41479847     0.37700
C3510       C  0.28872184  0.49378685  0.46228018     0.37600
N3511       N  0.21139557  0.37958470  0.40447810    -0.42600
N3512       N  0.30291409  0.51133761  0.47369403    -0.42600
C3513       C  0.27157429  0.44115266  0.57396548     0.01000
C3514       C  0.28502818  0.46666600  0.56288641    -0.10900
C3515       C  0.29618165  0.48824764  0.58096637     0.03200
C3516       C  0.29221474  0.48590829  0.61084912     0.00900
C3517       C  0.27987514  0.46031042  0.62231179    -0.10900
C3518       C  0.27089509  0.43744390  0.60436812     0.03100
H3519       H  0.28642535  0.47076716  0.53991964     0.16100
H3520       H  0.27729102  0.45806174  0.64547727     0.16100
C3521       C  0.26254728  0.41034715  0.61806839     0.37700
C3522       C  0.31149941  0.51255734  0.56819811     0.37600
N3523       N  0.25617780  0.38865450  0.62937857    -0.42600
N3524       N  0.32372470  0.53197824  0.55786505    -0.42600
C3525       C  0.16292165  0.24521616  0.38288449     0.01000
C3526       C  0.14997343  0.24651756  0.35501577    -0.10900
C3527       C  0.16607689  0.24330309  0.32978921     0.03200
C3528       C  0.19652434  0.23778410  0.33117843     0.00900
C3529       C  0.20905974  0.23305938  0.35922605    -0.10900
C3530       C  0.19264653  0.23694926  0.38475772     0.03100
H3531       H  0.12744693  0.25298963  0.35261970     0.16100
H3532       H  0.23162070  0.22652212  0.36132199     0.16100
C3533       C  0.20682069  0.23320364  0.41280858     0.37700
C3534       C  0.15058306  0.24729741  0.30236866     0.37600
N3535       N  0.21797271  0.23029793  0.43543836    -0.42600
N3536       N  0.13807764  0.25033180  0.28045125    -0.42600
C3537       C  0.17010380  0.30578777  0.39356744     0.01000
C3538       C  0.19872809  0.30388176  0.40524005    -0.10900
C3539       C  0.22307593  0.30169565  0.38730114     0.03200
C3540       C  0.21958764  0.30231000  0.35668278     0.00900
C3541       C  0.19181262  0.30921143  0.34513653    -0.10900
C3542       C  0.16732726  0.31053415  0.36301194     0.03100
H3543       H  0.20177821  0.30017342  0.42834187     0.16100
H3544       H  0.18873059  0.31106715  0.32182609     0.16100
C3545       C  0.13896075  0.31276489  0.34901809     0.37700
C3546       C  0.25142303  0.29747771  0.40087505     0.37600
N3547       N  0.11612817  0.31448490  0.33801221    -0.42600
N3548       N  0.27419064  0.29412902  0.41165469    -0.42600
C3549       C  0.11652801  0.33054411  0.43128881     0.01000
C3550       C  0.12831903  0.35164330  0.41236803    -0.10900
C3551       C  0.13245299  0.38068531  0.42051974     0.03200
C3552       C  0.12450337  0.38911275  0.44822237     0.00900
C3553       C  0.10282651  0.37221804  0.46081381    -0.10900
C3554       C  0.09947320  0.34268376  0.45363252     0.03100
H3555       H  0.13455678  0.34607866  0.39114221     0.16100
H3556       H  0.09203402  0.38070367  0.47954499     0.16100
C3557       C  0.07610424  0.32878885  0.46818915     0.37700
C3558       C  0.14368792  0.40133915  0.39987787     0.37600
N3559       N  0.05587628  0.32169804  0.48077426    -0.42600
N3560       N  0.15245870  0.41790809  0.38314224    -0.42600
C3561       C  0.10337786  0.16822248  0.39006379     0.01000
C3562       C  0.11874879  0.16830859  0.41661812    -0.10900
C3563       C  0.12574749  0.19485593  0.42980630     0.03200
C3564       C  0.11379659  0.22095674  0.41810933     0.00900
C3565       C  0.09768058  0.22042009  0.39207628    -0.10900
C3566       C  0.09570619  0.19493391  0.37646502     0.03100
H3567       H  0.12466042  0.14776195  0.42711168     0.16100
H3568       H  0.08961030  0.24066522  0.38234464     0.16100
C3569       C  0.08376990  0.19616129  0.34721655     0.37700
C3570       C  0.14553667  0.19473268  0.45455848     0.37600
N3571       N  0.07486023  0.19746155  0.32355481    -0.42600
N3572       N  0.16179423  0.19412897  0.47413518    -0.42600
C3573       C  0.20679531  0.24007724  0.70368067     0.01000
C3574       C  0.21542428  0.23183888  0.67596522    -0.10900
C3575       C  0.19570499  0.23265573  0.65190099     0.03200
C3576       C  0.16640686  0.24133523  0.65514571     0.00900
C3577       C  0.15692303  0.24528416  0.68340031    -0.10900
C3578       C  0.17670785  0.24522311  0.70734464     0.03100
H3579       H  0.23799891  0.22645328  0.67271704     0.16100
H3580       H  0.13454006  0.25159395  0.68646387     0.16100
C3581       C  0.16532064  0.25110495  0.73538667     0.37700
C3582       C  0.20664665  0.22689998  0.62357034     0.37600
N3583       N  0.15556398  0.25577550  0.75763655    -0.42600
N3584       N  0.21558418  0.22245968  0.60087938    -0.42600
C3585       C  0.18401041  0.29976203  0.63583626     0.01000
C3586       C  0.21181873  0.29715866  0.62442854    -0.10900
C3587       C  0.23748705  0.29945461  0.64218003     0.03200
C3588       C  0.23639714  0.30273120  0.67280204     0.00900
C3589       C  0.20873220  0.30901724  0.68349915    -0.10900
C3590       C  0.18308084  0.30789731  0.66548951     0.03100
H3591       H  0.21356674  0.29202755  0.60167873     0.16100
H3592       H  0.20690324  0.31373047  0.70631892     0.16100
C3593       C  0.15550809  0.31324486  0.67846828     0.37700
C3594       C  0.26438256  0.30190675  0.62749911     0.37600
N3595       N  0.13331018  0.31729330  0.68880935    -0.42600
N3596       N  0.28492939  0.30568583  0.61423406    -0.42600
C3597       C  0.07925915  0.17730648  0.65319775     0.01000
C3598       C  0.10313021  0.17154613  0.63568098    -0.10900
C3599       C  0.11696112  0.19421596  0.62038327     0.03200
C3600       C  0.10721473  0.22331074  0.62260228     0.00900
C3601       C  0.08306284  0.22883546  0.63899491    -0.10900
C3602       C  0.06825724  0.20645427  0.65292008     0.03100
H3603       H  0.11110343  0.14941510  0.63382123     0.16100
H3604       H  0.07679378  0.25114693  0.64277552     0.16100
C3605       C  0.04328326  0.21553547  0.66859324     0.37700
C3606       C  0.14129166  0.18722385  0.60279629     0.37600
N3607       N  0.02443905  0.22453368  0.68186138    -0.42600
N3608       N  0.16061773  0.18146048  0.58847414    -0.42600
C3609       C  0.14928097  0.31571676  0.57806812     0.01000
C3610       C  0.15909011  0.30722298  0.55136843    -0.10900
C3611       C  0.17037574  0.32693242  0.53163053     0.03200
C3612       C  0.17965639  0.35520380  0.54077272     0.00900
C3613       C  0.16996880  0.36433837  0.56799580    -0.10900
C3614       C  0.15429962  0.34511538  0.58623982     0.03100
H3615       H  0.15941771  0.28462733  0.54619546     0.16100
H3616       H  0.17418155  0.38652853  0.57486150     0.16100
C3617       C  0.14369591  0.35598616  0.61308941     0.37700
C3618       C  0.17011597  0.31717320  0.50197028     0.37600
N3619       N  0.13502268  0.36512712  0.63443120    -0.42600
N3620       N  0.16980505  0.30886792  0.47840064    -0.42600
C3621       C  0.19696852  0.00864307  0.21951668     0.01000
C3622       C  0.22094085  0.01928785  0.23549516    -0.10900
C3623       C  0.24905765  0.01897963  0.22457961     0.03200
C3624       C  0.25385388  0.00925282  0.19588653     0.00900
C3625       C  0.22944931  0.99863051  0.17989816    -0.10900
C3626       C  0.20155039  0.99771346  0.19165015     0.03100
H3627       H  0.21767300  0.02744348  0.25707774     0.16100
H3628       H  0.23185646  0.99111542  0.15798677     0.16100
C3629       C  0.17767625  0.98618282  0.17443686     0.37700
C3630       C  0.27216232  0.02765304  0.24439462     0.37600
N3631       N  0.15851001  0.97688726  0.16064849    -0.42600
N3632       N  0.29008454  0.03484267  0.26090100    -0.42600
C3633       C  0.33297759  0.10709727  0.08441562     0.01000
C3634       C  0.35182961  0.13097804  0.08919464    -0.10900
C3635       C  0.34769663  0.15739481  0.07417901     0.03200
C3636       C  0.32496494  0.15981319  0.05348238     0.00900
C3637       C  0.30708690  0.13571110  0.04765250    -0.10900
C3638       C  0.31023339  0.10981403  0.06341403     0.03100
H3639       H  0.36967155  0.12910618  0.10491014     0.16100
H3640       H  0.28944751  0.13776672  0.03169850     0.16100
C3641       C  0.28849445  0.08754517  0.05869832     0.37700
C3642       C  0.36684014  0.18165909  0.08034520     0.37600
N3643       N  0.27076680  0.07005295  0.05448255    -0.42600
N3644       N  0.38214504  0.20113410  0.08536655    -0.42600
C3645       C  0.32493591  0.98291765  0.09912935     0.01000
C3646       C  0.34332970  0.96189712  0.08693552    -0.10900
C3647       C  0.33291986  0.94111157  0.06745922     0.03200
C3648       C  0.30484126  0.94390378  0.05534106     0.00900
C3649       C  0.28704384  0.96666090  0.06453063    -0.10900
C3650       C  0.29650453  0.98567813  0.08662402     0.03100
H3651       H  0.36618447  0.96104963  0.09210747     0.16100
H3652       H  0.26531970  0.96894384  0.05508741     0.16100
C3653       C  0.27660381  0.00793571  0.09556562     0.37700
C3654       C  0.35129668  0.91649244  0.06137991     0.37600
N3655       N  0.26049192  0.02558041  0.10290830    -0.42600
N3656       N  0.36628658  0.89687193  0.05689041    -0.42600
C3657       C  0.55538422  0.74627329  0.35059072     0.01000
C3658       C  0.55897625  0.72052953  0.36724059    -0.10900
C3659       C  0.55820780  0.69315340  0.35416812     0.03200
C3660       C  0.55500130  0.69141338  0.32396111     0.00900
C3661       C  0.55112978  0.71684684  0.30729535    -0.10900
C3662       C  0.55052028  0.74417599  0.32032807     0.03100
H3663       H  0.56221436  0.72189596  0.39051760     0.16100
H3664       H  0.54855819  0.71517639  0.28398473     0.16100
C3665       C  0.54501037  0.76922140  0.30180050     0.37700
C3666       C  0.56105902  0.66709535  0.37187746     0.37600
N3667       N  0.53986944  0.78834687  0.28586194    -0.42600
N3668       N  0.56343372  0.64612514  0.38599472    -0.42600
C3669       C  0.49338921  0.80843136  0.47811594     0.01000
C3670       C  0.49973908  0.78039054  0.48935729    -0.10900
C3671       C  0.47868332  0.76424953  0.50354826     0.03200
C3672       C  0.45055026  0.77570562  0.50545656     0.00900
C3673       C  0.44422146  0.80379042  0.49492012    -0.10900
C3674       C  0.46570622  0.82063825  0.48227862     0.03100
H3675       H  0.52093540  0.77080654  0.48669164     0.16100
H3676       H  0.42279625  0.81297557  0.49776637     0.16100
C3677       C  0.45930667  0.85079835  0.47518172     0.37700
C3678       C  0.48640320  0.73617032  0.51612513     0.37600
N3679       N  0.45421835  0.87504634  0.46973373    -0.42600
N3680       N  0.49266659  0.71377298  0.52639203    -0.42600
C3681       C  0.60833555  0.81002401  0.44000859     0.01000
C3682       C  0.63460847  0.82481044  0.44569684    -0.10900
C3683       C  0.65930827  0.81017038  0.45618999     0.03200
C3684       C  0.65757674  0.78051391  0.46407823     0.00900
C3685       C  0.63097778  0.76595044  0.46073733    -0.10900
C3686       C  0.60639718  0.78032615  0.44924427     0.03100
H3687       H  0.63617995  0.84813305  0.44262450     0.16100
H3688       H  0.62909531  0.74357017  0.46853194     0.16100
C3689       C  0.57963851  0.76384077  0.44762491     0.37700
C3690       C  0.68596877  0.82655105  0.45858796     0.37600
N3691       N  0.55838142  0.75037731  0.44607816    -0.42600
N3692       N  0.70670549  0.84081369  0.45961172    -0.42600
C3693       C  0.82158766  0.02139766  0.21389315     0.01000
C3694       C  0.82505297  0.00335129  0.18984179    -0.10900
C3695       C  0.80509944  0.00406691  0.16643783     0.03200
C3696       C  0.78111784  0.02296478  0.16685464     0.00900
C3697       C  0.77860118  0.04239455  0.19001712    -0.10900
C3698       C  0.79894974  0.04206994  0.21328491     0.03100
H3699       H  0.84281967  0.98786090  0.19000542     0.16100
H3700       H  0.76004453  0.05681542  0.19060347     0.16100
C3701       C  0.79549269  0.06207596  0.23682842     0.37700
C3702       C  0.80875716  0.98428102  0.14279704     0.37600
N3703       N  0.79274970  0.07837661  0.25552973    -0.42600
N3704       N  0.81183783  0.96851316  0.12373701    -0.42600
C3705       C  0.72418029  0.04852918  0.05902820     0.01000
C3706       C  0.71157945  0.07516890  0.04968563    -0.10900
C3707       C  0.72866962  0.09766892  0.03887432     0.03200
C3708       C  0.75775886  0.09208362  0.03275040     0.00900
C3709       C  0.76896501  0.06392810  0.03656254    -0.10900
C3710       C  0.75302961  0.04244925  0.05068118     0.03100
H3711       H  0.68875588  0.07937219  0.05209135     0.16100
H3712       H  0.79116859  0.05949088  0.03072915     0.16100
C3713       C  0.76821701  0.01583622  0.05876250     0.37700
C3714       C  0.71611778  0.12643358  0.03521843     0.37600
N3715       N  0.78092600  0.99498016  0.06570906    -0.42600
N3716       N  0.70606620  0.14952611  0.03264382    -0.42600
C3717       C  0.72350029  0.92902621  0.04221361     0.01000
C3718       C  0.74989335  0.93477787  0.02858570    -0.10900
C3719       C  0.76458225  0.91296887  0.01422017     0.03200
C3720       C  0.75269752  0.88471718  0.01302279     0.00900
C3721       C  0.72663572  0.87864384  0.02683363    -0.10900
C3722       C  0.71186686  0.90048288  0.04121452     0.03100
H3723       H  0.75957890  0.95625419  0.02964757     0.16100
H3724       H  0.71781081  0.85664711  0.02625813     0.16100
C3725       C  0.68470390  0.89288078  0.05408777     0.37700
C3726       C  0.79260012  0.91967378  0.00255362     0.37600
N3727       N  0.66306481  0.88616429  0.06439449    -0.42600
N3728       N  0.81509061  0.92504008  0.99331294    -0.42600
C3729       C  0.69500347  0.91213374  0.21973493     0.01000
C3730       C  0.69883853  0.89228982  0.19707313    -0.10900
C3731       C  0.72229402  0.87204158  0.19752779     0.03200
C3732       C  0.74316150  0.87122213  0.22101361     0.00900
C3733       C  0.74198537  0.89454387  0.24067742    -0.10900
C3734       C  0.71868214  0.91482722  0.23998850     0.03100
H3735       H  0.68160325  0.89011204  0.18075000     0.16100
H3736       H  0.75846645  0.89608358  0.25782909     0.16100
C3737       C  0.71745221  0.93567973  0.26311632     0.37700
C3738       C  0.72357032  0.85174547  0.17392363     0.37600
N3739       N  0.71661934  0.95216781  0.28188551    -0.42600
N3740       N  0.72454173  0.83561122  0.15485652    -0.42600
C3741       C  0.67146706  0.87173060  0.26163809     0.01000
C3742       C  0.68968940  0.87218085  0.28660284    -0.10900
C3743       C  0.71078571  0.85012136  0.29213015     0.03200
C3744       C  0.71477565  0.82704177  0.27223985     0.00900
C3745       C  0.69562755  0.82590519  0.24805700    -0.10900
C3746       C  0.67418487  0.84756772  0.24281992     0.03100
H3747       H  0.68821374  0.89041427  0.30127288     0.16100
H3748       H  0.69694539  0.80758686  0.23345859     0.16100
C3749       C  0.65535955  0.84473754  0.21745590     0.37700
C3750       C  0.72847510  0.85190231  0.31834570     0.37600
N3751       N  0.64048075  0.84247414  0.19698138    -0.42600
N3752       N  0.74255122  0.85338859  0.33944398    -0.42600
C3753       C  0.64760312  0.95712967  0.19964918     0.01000
C3754       C  0.63865000  0.94488627  0.17290160    -0.10900
C3755       C  0.64992708  0.95507584  0.14651497     0.03200
C3756       C  0.66995297  0.97844493  0.14680042     0.00900
C3757       C  0.67439395  0.99320110  0.17321119    -0.10900
C3758       C  0.66646290  0.98120264  0.19931804     0.03100
H3759       H  0.62452368  0.92592374  0.17293776     0.16100
H3760       H  0.68603854  0.01378523  0.17387799     0.16100
C3761       C  0.68178860  0.99209223  0.22457011     0.37700
C3762       C  0.63943815  0.94224450  0.11988942     0.37600
N3763       N  0.69507466  0.00195709  0.24374638    -0.42600
N3764       N  0.63052033  0.93204286  0.09861489    -0.42600
C3765       C  0.62103184  0.90752566  0.29185381     0.01000
C3766       C  0.62231696  0.93074298  0.31148500    -0.10900
C3767       C  0.62026144  0.92526051  0.34109449     0.03200
C3768       C  0.61883103  0.89625727  0.35121627     0.00900
C3769       C  0.61994161  0.87318974  0.33164415    -0.10900
C3770       C  0.61875555  0.87866876  0.30208551     0.03100
H3771       H  0.62517149  0.95299882  0.30384009     0.16100
H3772       H  0.61797806  0.85089971  0.33955306     0.16100
C3773       C  0.61389542  0.85454771  0.28255042     0.37700
C3774       C  0.61844154  0.94941493  0.36076153     0.37600
N3775       N  0.60956946  0.83524462  0.26702569    -0.42600
N3776       N  0.61690526  0.96878543  0.37654236    -0.42600
C3777       C  0.39558350  0.88447688  0.26599833     0.01000
C3778       C  0.39348508  0.86528939  0.24231199    -0.10900
C3779       C  0.36880578  0.84702908  0.23762072     0.03200
C3780       C  0.34523450  0.84740313  0.25670549     0.00900
C3781       C  0.34698335  0.86719654  0.27974564    -0.10900
C3782       C  0.37160043  0.88512317  0.28469040     0.03100
H3783       H  0.41170700  0.86362807  0.22810132     0.16100
H3784       H  0.32878761  0.86882077  0.29402100     0.16100
C3785       C  0.37210906  0.90319208  0.31013164     0.37700
C3786       C  0.36806718  0.82799394  0.21294974     0.37600
N3787       N  0.37251058  0.91737959  0.33073019    -0.42600
N3788       N  0.36744429  0.81264464  0.19319899    -0.42600
C3789       C  0.43396851  0.85638791  0.30785241     0.01000
C3790       C  0.41341060  0.85322880  0.32954224    -0.10900
C3791       C  0.39279324  0.83025932  0.32902945     0.03200
C3792       C  0.39311529  0.80862279  0.30710423     0.00900
C3793       C  0.41675128  0.80949374  0.28827972    -0.10900
C3794       C  0.43703439  0.83268130  0.28879840     0.03100
H3795       H  0.41110687  0.87076434  0.34485084     0.16100
H3796       H  0.41897581  0.79254360  0.27229337     0.16100
C3797       C  0.45908377  0.83363815  0.26726783     0.37700
C3798       C  0.37063171  0.83073705  0.35042411     0.37600
N3799       N  0.47681937  0.83447946  0.25004309    -0.42600
N3800       N  0.35273960  0.83131033  0.36747089    -0.42600
C3801       C  0.43186391  0.93577781  0.23740567     0.01000
C3802       C  0.45001268  0.93413338  0.21361114    -0.10900
C3803       C  0.44042539  0.94503252  0.18668302     0.03200
C3804       C  0.41212404  0.95604127  0.18361985     0.00900
C3805       C  0.39350146  0.95541925  0.20700781    -0.10900
C3806       C  0.40378976  0.94723720  0.23420536     0.03100
H3807       H  0.47148629  0.92458561  0.21613744     0.16100
H3808       H  0.37202730  0.96492113  0.20442497     0.16100
C3809       C  0.38643523  0.95364300  0.25884095     0.37700
C3810       C  0.45972218  0.94534191  0.16267398     0.37600
N3811       N  0.37277698  0.95969865  0.27851431    -0.42600
N3812       N  0.47514918  0.94543755  0.14334242    -0.42600
C3813       C  0.48605007  0.89532965  0.32459279     0.01000
C3814       C  0.50926171  0.87842383  0.31666046    -0.10900
C3815       C  0.52581967  0.86324115  0.33719569     0.03200
C3816       C  0.51857114  0.86328057  0.36707030     0.00900
C3817       C  0.49534558  0.88102098  0.37517923    -0.10900
C3818       C  0.47899770  0.89686552  0.35411147     0.03100
H3819       H  0.51351334  0.87542015  0.29401714     0.16100
H3820       H  0.49026975  0.88307962  0.39779393     0.16100
C3821       C  0.45484885  0.91430494  0.36307005     0.37700
C3822       C  0.54998355  0.84747404  0.32617945     0.37600
N3823       N  0.43551171  0.92835496  0.37022364    -0.42600
N3824       N  0.56861829  0.83350417  0.31755647    -0.42600
C3825       C  0.51765398  0.32096322  0.31937503     0.01000
C3826       C  0.52164931  0.32438430  0.34937183    -0.10900
C3827       C  0.52252563  0.30006868  0.36823864     0.03200
C3828       C  0.51994448  0.27148951  0.35697703     0.00900
C3829       C  0.51475471  0.26840380  0.32698191    -0.10900
C3830       C  0.51352109  0.29269960  0.30830355     0.03100
H3831       H  0.52491020  0.34616958  0.35788557     0.16100
H3832       H  0.51298234  0.24674282  0.31783386     0.16100
C3833       C  0.51076282  0.28775447  0.27759345     0.37700
C3834       C  0.52557606  0.30536819  0.39887420     0.37600
N3835       N  0.50887747  0.28311190  0.25304228    -0.42600
N3836       N  0.52799535  0.31026320  0.42335055    -0.42600
C3837       C  0.45753689  0.18248849  0.48528347     0.01000
C3838       C  0.45797890  0.21040117  0.49744258    -0.10900
C3839       C  0.43257562  0.22324472  0.50621721     0.03200
C3840       C  0.40617767  0.20802972  0.50260103     0.00900
C3841       C  0.40589358  0.17924052  0.49298122    -0.10900
C3842       C  0.43160843  0.16603229  0.48503622     0.03100
H3843       H  0.47774677  0.22320560  0.49814452     0.16100
H3844       H  0.38561161  0.16720518  0.49162810     0.16100
C3845       C  0.43082747  0.13586380  0.47630684     0.37700
C3846       C  0.43437207  0.25231019  0.51797847     0.37600
N3847       N  0.42996080  0.11161654  0.46948011    -0.42600
N3848       N  0.43660140  0.27543578  0.52769476    -0.42600
C3849       C  0.57225458  0.20926033  0.45349127     0.01000
C3850       C  0.60012502  0.19773728  0.46000555    -0.10900
C3851       C  0.62160555  0.21399709  0.47447007     0.03200
C3852       C  0.61476693  0.24125445  0.48614227     0.00900
C3853       C  0.58633584  0.25192510  0.48239468    -0.10900
C3854       C  0.56526479  0.23648139  0.46605750     0.03100
H3855       H  0.60548136  0.17556884  0.45486311     0.16100
H3856       H  0.58044277  0.27214141  0.49275828     0.16100
C3857       C  0.53634415  0.24855242  0.46363394     0.37700
C3858       C  0.65029550  0.20151829  0.47811729     0.37600
N3859       N  0.51306014  0.25799314  0.46172366    -0.42600
N3860       N  0.67330727  0.19154802  0.48080822    -0.42600
C3861       C  0.38392255  0.12816322  0.25631702     0.01000
C3862       C  0.38481318  0.15424350  0.23954025    -0.10900
C3863       C  0.36049709  0.17338259  0.23632951     0.03200
C3864       C  0.33421741  0.16742949  0.25049480     0.00900
C3865       C  0.33258162  0.14020815  0.26519790    -0.10900
C3866       C  0.35675474  0.12093716  0.26815519     0.03100
H3867       H  0.40524099  0.16060465  0.23027691     0.16100
H3868       H  0.31216520  0.13388901  0.27455525     0.16100
C3869       C  0.35342288  0.09411765  0.28437142     0.37700
C3870       C  0.36303600  0.19921108  0.21838710     0.37600
N3871       N  0.35054960  0.07258497  0.29737215    -0.42600
N3872       N  0.36493482  0.21991006  0.20392406    -0.42600
C3873       C  0.41495448  0.15424995  0.30412505     0.01000
C3874       C  0.42131089  0.18075936  0.29017413    -0.10900
C3875       C  0.40145003  0.20413218  0.28908704     0.03200
C3876       C  0.37342459  0.20106159  0.30119486     0.00900
C3877       C  0.36896735  0.17618275  0.31883042    -0.10900
C3878       C  0.38966963  0.15331477  0.32080239     0.03100
H3879       H  0.44034832  0.18218978  0.27710263     0.16100
H3880       H  0.34884920  0.17396488  0.33024723     0.16100
C3881       C  0.38364693  0.12801236  0.33851527     0.37700
C3882       C  0.41063636  0.23053899  0.27450484     0.37600
N3883       N  0.37889849  0.10780098  0.35291163    -0.42600
N3884       N  0.41835740  0.25162931  0.26296563    -0.42600
C3885       C  0.49469363  0.15068906  0.37026554     0.01000
C3886       C  0.50120884  0.15912731  0.34165365    -0.10900
C3887       C  0.48889036  0.14568902  0.31738027     0.03200
C3888       C  0.47179620  0.12036492  0.32045743     0.00900
C3889       C  0.46742504  0.10960621  0.34870738    -0.10900
C3890       C  0.47918418  0.12402404  0.37338875     0.03100
H3891       H  0.51675926  0.17628833  0.33764552     0.16100
H3892       H  0.45406993  0.09031229  0.35155552     0.16100
C3893       C  0.47660136  0.10977641  0.40115801     0.37700
C3894       C  0.49323106  0.15998449  0.28983668     0.37600
N3895       N  0.47478527  0.09781737  0.42324473    -0.42600
N3896       N  0.49711241  0.17238703  0.26829958    -0.42600
C3897       C  0.37275238  0.05395916  0.19293107     0.01000
C3898       C  0.39365175  0.07535133  0.18595174    -0.10900
C3899       C  0.41398196  0.08571371  0.20668965     0.03200
C3900       C  0.41484367  0.07401972  0.23503780     0.00900
C3901       C  0.39503190  0.05221789  0.24202719    -0.10900
C3902       C  0.37447989  0.04196718  0.22168424     0.03100
H3903       H  0.39499074  0.08335698  0.16390701     0.16100
H3904       H  0.39446065  0.04418267  0.26415935     0.16100
C3905       C  0.35615051  0.01864637  0.23163311     0.37700
C3906       C  0.43340302  0.10903825  0.19870249     0.37600
N3907       N  0.34128910  0.00019645  0.24002736    -0.42600
N3908       N  0.44894895  0.12782176  0.19249269    -0.42600
C3909       C  0.67937858  0.13239276  0.23416464     0.01000
C3910       C  0.68256654  0.15842811  0.21785656    -0.10900
C3911       C  0.70807536  0.17573857  0.22051004     0.03200
C3912       C  0.73100994  0.16729718  0.23993568     0.00900
C3913       C  0.72885333  0.13972799  0.25360910    -0.10900
C3914       C  0.70381827  0.12237361  0.25059159     0.03100
H3915       H  0.66413184  0.16655890  0.20507863     0.16100
H3916       H  0.74675038  0.13180914  0.26731515     0.16100
C3917       C  0.70245831  0.09537190  0.26695861     0.37700
C3918       C  0.71020708  0.20197667  0.20310142     0.37600
N3919       N  0.70138949  0.07373839  0.28011678    -0.42600
N3920       N  0.71201510  0.22298910  0.18908312    -0.42600
C3921       C  0.65405249  0.15994070  0.28202884     0.01000
C3922       C  0.65133987  0.18654332  0.26648044    -0.10900
C3923       C  0.67169082  0.20936729  0.27004561     0.03200
C3924       C  0.69525852  0.20652711  0.29009192     0.00900
C3925       C  0.69637472  0.18106409  0.30765841    -0.10900
C3926       C  0.67628514  0.15793533  0.30371242     0.03100
H3927       H  0.63450975  0.18857646  0.24966624     0.16100
H3928       H  0.71286356  0.17939560  0.32483722     0.16100
C3929       C  0.67921907  0.13226978  0.32195358     0.37700
C3930       C  0.66798162  0.23567006  0.25277052     0.37600
N3931       N  0.68173385  0.11189423  0.33689464    -0.42600
N3932       N  0.66515755  0.25676949  0.23891676    -0.42600
C3933       C  0.63504623  0.08889757  0.20539578     0.01000
C3934       C  0.66306362  0.08217130  0.19674734    -0.10900
C3935       C  0.66936370  0.08105255  0.16767436     0.03200
C3936       C  0.64661832  0.08092090  0.14672287     0.00900
C3937       C  0.61835701  0.08684739  0.15514036    -0.10900
C3938       C  0.61254651  0.09206929  0.18412070     0.03100
H3939       H  0.68061987  0.07975620  0.21266042     0.16100
H3940       H  0.60073816  0.08625168  0.13906562     0.16100
C3941       C  0.58366991  0.10147671  0.19061602     0.37700
C3942       C  0.69934949  0.08024216  0.15976807     0.37600
N3943       N  0.56016867  0.10920792  0.19419177    -0.42600
N3944       N  0.72341362  0.08108526  0.15339685    -0.42600
C3945       C  0.60589904  0.11793876  0.30493364     0.01000
C3946       C  0.59705650  0.14603367  0.31211694    -0.10900
C3947       C  0.59535384  0.15380749  0.34073456     0.03200
C3948       C  0.59878656  0.13217380  0.36247583     0.00900
C3949       C  0.60716362  0.10398153  0.35546603    -0.10900
C3950       C  0.61179839  0.09685041  0.32687821     0.03100
H3951       H  0.59367810  0.16258095  0.29529852     0.16100
H3952       H  0.60914052  0.08742314  0.37241374     0.16100
C3953       C  0.62465719  0.06876975  0.32178813     0.37700
C3954       C  0.58860195  0.18378461  0.34721257     0.37600
N3955       N  0.63554384  0.04611362  0.32003855    -0.42600
N3956       N  0.58379796  0.20802567  0.35206851    -0.42600
loop_ 
_geom_bond_atom_site_label_1 
_geom_bond_atom_site_label_2 
_geom_bond_distance 
_geom_bond_site_symmetry_2 
_ccdc_geom_bond_type 
N1            C5   1.330       .  A
N1            C2   1.374       .  A
N1         C3909   1.463       .  S
C2            C3   1.433       .  A
C2         C3933   1.464       .  S
C3            C4   1.412       .  A
C3         C1352   1.577       .  S
C4            C5   1.399       .  A
C4         C3945   1.440       .  S
C5         C3921   1.518       .  S
N6           C10   1.339       .  A
N6            C7   1.375       .  A
N6         C3861   1.483       .  S
C7            C8   1.459       .  A
C7         C3900   1.475       .  S
C8            C9   1.451       .  A
C8         C1353   1.616       .  S
C9           C10   1.412       .  A
C9         C3888   1.489       .  S
C10        C3873   1.511       .  S
C11          C13   1.549       .  S
C11          C15   1.540       .  S
C11          C14   1.536       .  S
C11        C3849   1.547       .  S
C12          C16   1.518       .  S
C12          C18   1.522       .  S
C12          C17   1.550       .  S
C12        C3885   1.553       .  S
C13          C21   1.367       .  A
C13          C16   1.407       .  A
C14          C25   1.386       .  A
C14          C17   1.385       .  A
C15          C29   1.380       .  A
C15          C18   1.400       .  A
C16          C19   1.356       .  A
C17          C23   1.381       .  A
C18          C26   1.350       .  A
C19          N20   1.356       .  A
C19          H32   1.082       .  S
N20          C21   1.361       .  A
N20        C3837   1.427       .  S
C21          H22   1.082       .  S
C23          N24   1.357       .  A
C23          H33   1.082       .  S
N24          C25   1.362       .  A
N24        C3828   1.449       .  S
C25          H31   1.081       .  S
C26          N27   1.341       .  A
C26          H28   1.085       .  S
N27          C29   1.349       .  A
N27        C3948   1.405       .  S
C29          H30   1.082       .  S
N34          C38   1.335       .  A
N34          C35   1.374       .  A
N34        C3789   1.462       .  S
C35          C36   1.440       .  A
C35        C3813   1.462       .  S
C36          C37   1.417       .  A
C36        C1354   1.596       .  S
C37          C38   1.406       .  A
C37        C3801   1.443       .  S
C38        C3777   1.533       .  S
N39          C43   1.398       .  A
N39          C40   1.378       .  A
N39        C3753   1.432       .  S
C40          C41   1.361       .  A
C40        C3729   1.527       .  S
C41          C42   1.411       .  A
C41        C3741   1.527       .  S
C42          C43   1.420       .  A
C42        C3765   1.454       .  S
C43        C1351   1.612       .  S
C44          C46   1.551   1_545  S
C44          C48   1.541       .  S
C44          C47   1.531       .  S
C44        C3705   1.528       .  S
C45          C49   1.531       .  S
C45          C51   1.537   1_565  S
C45          C50   1.548   1_565  S
C45        C3756   1.535       .  S
C46          C54   1.366       .  A
C46          C49   1.410       .  A
C47          C58   1.389       .  A
C47          C50   1.375       .  A
C48          C62   1.390       .  A
C48          C51   1.397       .  A
C49          C52   1.378       .  A
C50          C56   1.381       .  A
C51          C59   1.361       .  A
C52          N53   1.360       .  A
C52          H65   1.082       .  S
N53          C54   1.355       .  A
N53        C3717   1.439       .  S
C54          H55   1.081       .  S
C56          N57   1.352       .  A
C56          H66   1.080   1_545  S
N57          C58   1.355       .  A
N57        C3696   1.436       .  S
C58          H64   1.082       .  S
C59          N60   1.342       .  A
C59          H61   1.084       .  S
N60          C62   1.353       .  A
N60        C3936   1.421       .  S
C62          H63   1.082       .  S
C67          C69   1.541       .  S
C67          C71   1.556       .  S
C67          C70   1.530       .  S
C67        C3681   1.534       .  S
C68          C72   1.531       .  S
C68          C74   1.524       .  S
C68          C73   1.538       .  S
C68        C3816   1.531       .  S
C69          C77   1.385       .  A
C69          C72   1.391       .  A
C70          C81   1.377       .  A
C70          C73   1.376       .  A
C71          C85   1.373       .  A
C71          C74   1.413       .  A
C72          C75   1.361       .  A
C73          C79   1.383       .  A
C74          C82   1.366       .  A
C75          N76   1.345       .  A
C75          H88   1.084       .  S
N76          C77   1.355       .  A
N76        C3768   1.418       .  S
C77          H78   1.082       .  S
C79          N80   1.355       .  A
C79          H89   1.082       .  S
N80          C81   1.354       .  A
N80        C3657   1.436       .  S
C81          H87   1.082       .  S
C82          N83   1.356       .  A
C82          H84   1.082       .  S
N83          C85   1.358       .  A
N83        C3669   1.434       .  S
C85          H86   1.082       .  S
C90          C92   1.551       .  S
C90          C94   1.540   1_545  S
C90          C93   1.550       .  S
C90        C3645   1.549   1_545  S
C91          C95   1.517       .  S
C91          C97   1.532       .  S
C91          C96   1.552       .  S
C91        C3897   1.546       .  S
C92         C100   1.372       .  A
C92          C95   1.398       .  A
C93         C104   1.389   1_545  A
C93          C96   1.398       .  A
C94         C108   1.386       .  A
C94          C97   1.390   1_565  A
C95          C98   1.363       .  A
C96         C102   1.386       .  A
C97         C105   1.363       .  A
C98          N99   1.356       .  A
C98         H111   1.082       .  S
N99         C100   1.362       .  A
N99        C3633   1.437       .  S
C100        H101   1.081       .  S
C102        N103   1.361       .  A
C102        H112   1.079       .  S
N103        C104   1.365   1_545  A
N103       C3624   1.467       .  S
C104        H110   1.080       .  S
C105        N106   1.344   1_545  A
C105        H107   1.084       .  S
N106        C108   1.350       .  A
N106       C3804   1.414       .  S
C108        H109   1.083       .  S
N113        C117   1.409       .  A
N113        C114   1.383       .  A
N113       C3609   1.453       .  S
C114        C115   1.377       .  A
C114       C3585   1.538       .  S
C115        C116   1.404       .  A
C115       C3576   1.511       .  S
C116        C117   1.430       .  A
C116       C3600   1.481       .  S
C117       C1184   1.604       .  S
N118        C122   1.346       .  A
N118        C119   1.404       .  A
N118       C3537   1.475       .  S
C119        C120   1.458       .  A
C119       C3549   1.534       .  S
C120        C121   1.418       .  A
C120       C1183   1.581       .  S
C121        C122   1.397       .  A
C121       C3564   1.449       .  S
C122       C3525   1.540       .  S
C123        C125   1.534       .  S
C123        C127   1.524       .  S
C123        C126   1.551       .  S
C123       C3612   1.557       .  S
C124        C128   1.544       .  S
C124        C130   1.544       .  S
C124        C129   1.531       .  S
C124       C3501   1.548       .  S
C125        C133   1.378       .  A
C125        C128   1.392       .  A
C126        C137   1.377       .  A
C126        C129   1.406       .  A
C127        C141   1.359       .  A
C127        C130   1.400       .  A
C128        C131   1.361       .  A
C129        C135   1.386       .  A
C130        C138   1.384       .  A
C131        N132   1.354       .  A
C131        H144   1.079       .  S
N132        C133   1.368       .  A
N132       C3513   1.450       .  S
C133        H134   1.076       .  S
C135        N136   1.353       .  A
C135        H145   1.080       .  S
N136        C137   1.347       .  A
N136       C3489   1.440       .  S
C137        H143   1.083       .  S
C138        N139   1.363       .  A
C138        H140   1.076       .  S
N139        C141   1.354       .  A
N139       C3552   1.449       .  S
C141        H142   1.082       .  S
N146        C150   1.342       .  A
N146        C147   1.376       .  A
N146       C3453   1.463       .  S
C147        C148   1.471       .  A
C147       C3477   1.527       .  S
C148        C149   1.468       .  A
C148       C1182   1.613       .  S
C149        C150   1.414       .  A
C149       C3465   1.513       .  S
C150       C3441   1.532       .  S
N151        C155   1.344       .  A
N151        C152   1.401       .  A
N151       C3405   1.483       .  S
C152        C153   1.458       .  A
C152       C3429   1.510       .  S
C153        C154   1.418       .  A
C153       C1181   1.596       .  S
C154        C155   1.400       .  A
C154       C3417   1.455       .  S
C155       C3393   1.526       .  S
C156        C158   1.536       .  S
C156        C160   1.522       .  S
C156        C159   1.533       .  S
C156       C3597   1.543       .  S
C157        C161   1.548       .  S
C157        C163   1.521       .  S
C157        C162   1.565       .  S
C157       C3381   1.553       .  S
C158        C166   1.382       .  A
C158        C161   1.431       .  A
C159        C170   1.373       .  A
C159        C162   1.395       .  A
C160        C174   1.361       .  A
C160        C163   1.378       .  A
C161        C164   1.362       .  A
C162        C168   1.396       .  A
C163        C171   1.373   1_455  A
C164        N165   1.350       .  A
C164        H177   1.083       .  S
N165        C166   1.349       .  A
N165       C3369   1.433       .  S
C166        H167   1.082       .  S
C168        N169   1.362       .  A
C168        H178   1.078       .  S
N169        C170   1.347       .  A
N169       C3357   1.441       .  S
C170        H176   1.083       .  S
C171        N172   1.354       .  A
C171        H173   1.083       .  S
N172        C174   1.359   1_655  A
N172       C3420   1.416       .  S
C174        H175   1.084       .  S
C179        C181   1.536       .  S
C179        C183   1.552       .  S
C179        C182   1.529       .  S
C179       C3345   1.550       .  S
C180        C184   1.546       .  S
C180        C186   1.536       .  S
C180        C185   1.567       .  S
C180       C3480   1.571       .  S
C181        C189   1.389       .  A
C181        C184   1.378       .  A
C182        C193   1.378       .  A
C182        C185   1.413       .  A
C183        C197   1.374       .  A
C183        C186   1.414       .  A
C184        C187   1.371       .  A
C185        C191   1.401       .  A
C186        C194   1.381       .  A
C187        N188   1.353       .  A
C187        H200   1.076       .  S
N188        C189   1.361       .  A
N188       C3432   1.456       .  S
C189        H190   1.080       .  S
C191        N192   1.361       .  A
C191        H201   1.079       .  S
N192        C193   1.350       .  A
N192       C3321   1.453       .  S
C193        H199   1.083       .  S
C194        N195   1.355       .  A
C194        H196   1.082       .  S
N195        C197   1.352       .  A
N195       C3333   1.434       .  S
C197        H198   1.082       .  S
C202        C204   1.538       .  S
C202        C206   1.522       .  S
C202        C205   1.553       .  S
C202       C3468   1.568   1_455  S
C203        C207   1.543       .  S
C203        C209   1.528       .  S
C203        C208   1.542       .  S
C203       C3297   1.559       .  S
C204        C212   1.371   1_455  A
C204        C207   1.423       .  A
C205        C216   1.390       .  A
C205        C208   1.401       .  A
C206        C220   1.351       .  A
C206        C209   1.392       .  A
C207        C210   1.362       .  A
C208        C214   1.386       .  A
C209        C217   1.379       .  A
C210        N211   1.350   1_455  A
C210        H223   1.083       .  S
N211        C212   1.357       .  A
N211       C3312   1.425       .  S
C212        H213   1.083       .  S
C214        N215   1.348       .  A
C214        H224   1.080       .  S
N215        C216   1.353       .  A
N215       C3285   1.442       .  S
C216        H222   1.082   1_455  S
C217        N218   1.359       .  A
C217        H219   1.083       .  S
N218        C220   1.349       .  A
N218       C3561   1.417       .  S
C220        H221   1.085       .  S
N225        C229   1.374       .  A
N225        C226   1.336       .  A
N225       C3249   1.455       .  S
C226        C227   1.406       .  A
C226       C3237   1.539       .  S
C227        C228   1.421       .  A
C227       C3264   1.446       .  S
C228        C229   1.439       .  A
C228       C1317   1.590       .  S
C229       C3273   1.470       .  S
N230        C234   1.335       .  A
N230        C231   1.358       .  A
N230       C3201   1.456       .  S
C231        C232   1.407       .  A
C231       C3213   1.447       .  S
C232        C233   1.453       .  A
C232       C1320   1.583       .  S
C233        C234   1.435       .  A
C233       C3225   1.488       .  S
C234       C3189   1.544       .  S
C235        C237   1.544       .  S
C235        C239   1.538       .  S
C235        C238   1.535       .  S
C235       C3165   1.532       .  S
C236        C240   1.540       .  S
C236        C242   1.506       .  S
C236        C241   1.562       .  S
C236       C3276   1.541       .  S
C237        C245   1.387       .  A
C237        C240   1.402       .  A
C238        C249   1.390       .  A
C238        C241   1.389       .  A
C239        C253   1.359       .  A
C239        C242   1.396       .  A
C240        C243   1.357       .  A
C241        C247   1.390       .  A
C242        C250   1.362       .  A
C243        N244   1.346       .  A
C243        H256   1.085       .  S
N244        C245   1.357       .  A
N244       C3216   1.422       .  S
C245        H246   1.083       .  S
C247        N248   1.354       .  A
C247        H257   1.082       .  S
N248        C249   1.355       .  A
N248       C3153   1.452       .  S
C249        H255   1.081       .  S
C250        N251   1.351       .  A
C250        H252   1.082       .  S
N251        C253   1.353       .  A
N251       C3177   1.412       .  S
C253        H254   1.083       .  S
N258        C262   1.342       .  A
N258        C259   1.369       .  A
N258       C3105   1.467       .  S
C259        C260   1.417       .  A
C259       C3132   1.461       .  S
C260        C261   1.438       .  A
C260       C1319   1.586       .  S
C261        C262   1.414       .  A
C261       C3144   1.468       .  S
C262       C3117   1.526       .  S
N263        C267   1.329       .  A
N263        C264   1.362       .  A
N263       C3069   1.459       .  S
C264        C265   1.418       .  A
C264       C3096   1.450       .  S
C265        C266   1.441       .  A
C265       C1318   1.579       .  S
C266        C267   1.401       .  A
C266       C3081   1.469       .  S
C267       C3057   1.506       .  S
C268        C270   1.536   1_556  S
C268        C272   1.531       .  S
C268        C271   1.564   1_556  S
C268       C3084   1.535       .  S
C269        C273   1.520       .  S
C269        C275   1.529       .  S
C269        C274   1.552       .  S
C269       C3036   1.523       .  S
C270        C278   1.361       .  A
C270        C273   1.383       .  A
C271        C282   1.392       .  A
C271        C274   1.389       .  A
C272        C286   1.379       .  A
C272        C275   1.393   1_556  A
C273        C276   1.378       .  A
C274        C280   1.388       .  A
C275        C283   1.356   1_554  A
C276        N277   1.353       .  A
C276        H289   1.083       .  S
N277        C278   1.344       .  A
N277       C3261   1.412       .  S
C278        H279   1.083       .  S
C280        N281   1.370       .  A
C280        H290   1.075       .  S
N281        C282   1.369       .  A
N281       C3024   1.477       .  S
C282        H288   1.081   1_554  S
C283        N284   1.346       .  A
C283        H285   1.083   1_556  S
N284        C286   1.362       .  A
N284       C3048   1.425       .  S
C286        H287   1.082       .  S
C291        C293   1.541       .  S
C291        C295   1.553       .  S
C291        C294   1.543       .  S
C291       C3009   1.544       .  S
C292        C296   1.538       .  S
C292        C298   1.513       .  S
C292        C297   1.551       .  S
C292       C3141   1.550       .  S
C293        C301   1.390       .  A
C293        C296   1.392       .  A
C294        C305   1.390       .  A
C294        C297   1.407       .  A
C295        C309   1.372       .  A
C295        C298   1.399       .  A
C296        C299   1.361       .  A
C297        C303   1.387       .  A
C298        C306   1.363       .  A
C299        N300   1.343       .  A
C299        H312   1.085       .  S
N300        C301   1.356       .  A
N300       C3093   1.421       .  S
C301        H302   1.083       .  S
C303        N304   1.345       .  A
C303        H313   1.083       .  S
N304        C305   1.348       .  A
N304       C2985   1.436       .  S
C305        H311   1.081       .  S
C306        N307   1.355       .  A
C306        H308   1.082       .  S
N307        C309   1.361       .  A
N307       C2997   1.431       .  S
C309        H310   1.082       .  S
C314        C316   1.554   1_556  S
C314        C318   1.565       .  S
C314        C317   1.525       .  S
C314       C2973   1.550       .  S
C315        C319   1.522       .  S
C315        C321   1.539   1_554  S
C315        C320   1.549       .  S
C315       C3228   1.540       .  S
C316        C324   1.385       .  A
C316        C319   1.398       .  A
C317        C328   1.383       .  A
C317        C320   1.381   1_556  A
C318        C332   1.390       .  A
C318        C321   1.422       .  A
C319        C322   1.370       .  A
C320        C326   1.380       .  A
C321        C329   1.374       .  A
C322        N323   1.350       .  A
C322        H335   1.079       .  S
N323        C324   1.357       .  A
N323       C2964   1.445       .  S
C324        H325   1.076       .  S
C326        N327   1.350   1_554  A
C326        H336   1.081       .  S
N327        C328   1.353       .  A
N327       C2949   1.430       .  S
C328        H334   1.082       .  S
C329        N330   1.344       .  A
C329        H331   1.082       .  S
N330        C332   1.352       .  A
N330       C3129   1.433       .  S
C332        H333   1.076       .  S
N337        C341   1.333       .  A
N337        C338   1.369       .  A
N337       C2901   1.461       .  S
C338        C339   1.436       .  A
C338       C2940   1.474       .  S
C339        C340   1.465       .  A
C339       C1249   1.606       .  S
C340        C341   1.423       .  A
C340       C2928   1.496       .  S
C341       C2916   1.538       .  S
N342        C346   1.373       .  A
N342        C343   1.332       .  A
N342       C2853   1.468       .  S
C343        C344   1.417       .  A
C343       C2868   1.521       .  S
C344        C345   1.432       .  A
C344       C2889   1.482       .  S
C345        C346   1.440       .  A
C345       C1250   1.579       .  S
C346       C2877   1.477       .  S
N347        C351   1.341       .  A
N347        C348   1.373       .  A
N347       C2805   1.458       .  S
C348        C349   1.448       .  A
C348       C2829   1.488       .  S
C349        C350   1.457       .  A
C349       C1251   1.611       .  S
C350        C351   1.425       .  A
C350       C2841   1.490       .  S
C351       C2817   1.555       .  S
N352        C356   1.382       .  A
N352        C353   1.377       .  A
N352       C2793   1.427       .  S
C353        C354   1.380       .  A
C353       C2769   1.523       .  S
C354        C355   1.445       .  A
C354       C2757   1.555       .  S
C355        C356   1.434       .  A
C355       C2781   1.489       .  S
C356       C1252   1.608       .  S
C357        C359   1.531       .  S
C357        C361   1.530       .  S
C357        C360   1.551       .  S
C357       C2832   1.551       .  S
C358        C362   1.532       .  S
C358        C364   1.537       .  S
C358        C363   1.554       .  S
C358       C2733   1.539       .  S
C359        C367   1.376       .  A
C359        C362   1.392       .  A
C360        C371   1.385       .  A
C360        C363   1.402       .  A
C361        C375   1.356       .  A
C361        C364   1.389       .  A
C362        C365   1.361       .  A
C363        C369   1.386       .  A
C364        C372   1.385       .  A
C365        N366   1.353       .  A
C365        H378   1.081       .  S
N366        C367   1.364       .  A
N366       C2748   1.437       .  S
C367        H368   1.082       .  S
C369        N370   1.359       .  A
C369        H379   1.076       .  S
N370        C371   1.360       .  A
N370       C2721   1.459       .  S
C371        H377   1.082       .  S
C372        N373   1.357       .  A
C372        H374   1.078       .  S
N373        C375   1.358       .  A
N373       C2784   1.438       .  S
C375        H376   1.081       .  S
C380        C382   1.544       .  S
C380        C384   1.549       .  S
C380        C383   1.538       .  S
C380       C2709   1.539       .  S
C381        C385   1.512   1_554  S
C381        C387   1.533       .  S
C381        C386   1.550       .  S
C381       C2796   1.531   1_554  S
C382        C390   1.373   1_554  A
C382        C385   1.395   1_554  A
C383        C394   1.379       .  A
C383        C386   1.390       .  A
C384        C398   1.394       .  A
C384        C387   1.403       .  A
C385        C388   1.365       .  A
C386        C392   1.385       .  A
C387        C395   1.361       .  A
C388        N389   1.346       .  A
C388        H401   1.082       .  S
N389        C390   1.355       .  A
N389       C2700   1.415       .  S
C390        H391   1.082       .  S
C392        N393   1.361       .  A
C392        H402   1.081   1_554  S
N393        C394   1.361       .  A
N393       C2688   1.454       .  S
C394        H400   1.081       .  S
C395        N396   1.341       .  A
C395        H397   1.084       .  S
N396        C398   1.358       .  A
N396       C2937   1.426       .  S
C398        H399   1.083       .  S
C403        C405   1.526       .  S
C403        C407   1.547   1_556  S
C403        C406   1.549   1_556  S
C403       C2844   1.547       .  S
C404        C408   1.536   1_554  S
C404        C410   1.561       .  S
C404        C409   1.534       .  S
C404       C2673   1.557       .  S
C405        C413   1.375       .  A
C405        C408   1.389       .  A
C406        C417   1.375       .  A
C406        C409   1.384       .  A
C407        C421   1.375       .  A
C407        C410   1.431       .  A
C408        C411   1.377       .  A
C409        C415   1.373       .  A
C410        C418   1.396       .  A
C411        N412   1.357       .  A
C411        H424   1.082       .  S
N412        C413   1.353       .  A
N412       C2664   1.433       .  S
C413        H414   1.082       .  S
C415        N416   1.361       .  A
C415        H425   1.080       .  S
N416        C417   1.358       .  A
N416       C2652   1.447       .  S
C417        H423   1.079       .  S
C418        N419   1.355       .  A
C418        H420   1.081       .  S
N419        C421   1.345       .  A
N419       C2892   1.439       .  S
C421        H422   1.081       .  S
C426        C428   1.552       .  S
C426        C430   1.528       .  S
C426        C429   1.546       .  S
C426       C2625   1.548       .  S
C427        C431   1.548       .  S
C427        C433   1.525       .  S
C427        C432   1.558       .  S
C427       C2925   1.547       .  S
C428        C436   1.392       .  A
C428        C431   1.420       .  A
C429        C440   1.386       .  A
C429        C432   1.395       .  A
C430        C444   1.369       .  A
C430        C433   1.382       .  A
C431        C434   1.372       .  A
C432        C438   1.387       .  A
C433        C441   1.374       .  A
C434        N435   1.343       .  A
C434        H447   1.082       .  S
N435        C436   1.354       .  A
N435       C2880   1.431       .  S
C436        H437   1.083       .  S
C438        N439   1.354       .  A
C438        H448   1.079       .  S
N439        C440   1.356       .  A
N439       C2616   1.447       .  S
C440        H446   1.080       .  S
C441        N442   1.362       .  A
C441        H443   1.081       .  S
N442        C444   1.362       .  A
N442       C2637   1.448       .  S
C444        H445   1.079       .  S
N449        C453   1.401       .  A
N449        C450   1.375       .  A
N449       C2589   1.432       .  S
C450        C451   1.364       .  A
C450       C2577   1.552       .  S
C451        C452   1.420       .  A
C451       C2565   1.504       .  S
C452        C453   1.458       .  A
C452       C2601   1.518       .  S
C453       C1285   1.612       .  S
N454        C458   1.393       .  A
N454        C455   1.376       .  A
N454       C2556   1.430       .  S
C455        C456   1.362       .  A
C455       C2532   1.523       .  S
C456        C457   1.414       .  A
C456       C2517   1.525       .  S
C457        C458   1.429       .  A
C457       C2544   1.470       .  S
C458       C1286   1.612       .  S
N459        C463   1.349       .  A
N459        C460   1.396       .  A
N459       C2481   1.482       .  S
C460        C461   1.437       .  A
C460       C2505   1.513       .  S
C461        C462   1.444       .  A
C461       C1283   1.590       .  S
C462        C463   1.416       .  A
C462       C2493   1.484       .  S
C463       C2469   1.535       .  S
N464        C468   1.333       .  A
N464        C465   1.375       .  A
N464       C2433   1.464       .  S
C465        C466   1.433       .  A
C465       C2457   1.477       .  S
C466        C467   1.412       .  A
C466       C1284   1.559       .  S
C467        C468   1.395       .  A
C467       C2445   1.456       .  S
C468       C2421   1.510       .  S
C469        C471   1.528       .  S
C469        C473   1.548       .  S
C469        C472   1.546       .  S
C469       C2397   1.539       .  S
C470        C474   1.541       .  S
C470        C476   1.534       .  S
C470        C475   1.549       .  S
C470       C2496   1.544       .  S
C471        C479   1.377       .  A
C471        C474   1.382       .  A
C472        C483   1.388       .  A
C472        C475   1.384       .  A
C473        C487   1.368       .  A
C473        C476   1.418       .  A
C474        C477   1.370       .  A
C475        C481   1.387       .  A
C476        C484   1.374       .  A
C477        N478   1.354       .  A
C477        H490   1.083       .  S
N478        C479   1.359       .  A
N478       C2448   1.425       .  S
C479        H480   1.083       .  S
C481        N482   1.354       .  A
C481        H491   1.078       .  S
N482        C483   1.356       .  A
N482       C2385   1.443       .  S
C483        H489   1.081       .  S
C484        N485   1.356       .  A
C484        H486   1.081       .  S
N485        C487   1.355       .  A
N485       C2409   1.432       .  S
C487        H488   1.082       .  S
C492        C494   1.528       .  S
C492        C496   1.551       .  S
C492        C495   1.559       .  S
C492       C2604   1.558       .  S
C493        C497   1.531       .  S
C493        C499   1.549   1_545  S
C493        C498   1.535       .  S
C493       C2361   1.554   1_545  S
C494        C502   1.376       .  A
C494        C497   1.394       .  A
C495        C506   1.392       .  A
C495        C498   1.389       .  A
C496        C510   1.370   1_545  A
C496        C499   1.426   1_545  A
C497        C500   1.372       .  A
C498        C504   1.375   1_545  A
C499        C507   1.387       .  A
C500        N501   1.359       .  A
C500        H513   1.083       .  S
N501        C502   1.356       .  A
N501       C2376   1.432       .  S
C502        H503   1.082       .  S
C504        N505   1.352       .  A
C504        H514   1.080       .  S
N505        C506   1.359   1_565  A
N505       C2349   1.445       .  S
C506        H512   1.079       .  S
C507        N508   1.347       .  A
C507        H509   1.082       .  S
N508        C510   1.346       .  A
N508       C2460   1.425       .  S
C510        H511   1.082   1_565  S
C515        C517   1.504       .  S
C515        C519   1.520       .  S
C515        C518   1.548       .  S
C515       C2553   1.529   1_565  S
C516        C520   1.544       .  S
C516        C522   1.539       .  S
C516        C521   1.563       .  S
C516       C2328   1.537       .  S
C517        C525   1.358       .  A
C517        C520   1.370       .  A
C518        C529   1.378       .  A
C518        C521   1.432       .  A
C519        C533   1.366   1_565  A
C519        C522   1.386       .  A
C520        C523   1.389       .  A
C521        C527   1.392       .  A
C522        C530   1.379       .  A
C523        N524   1.353       .  A
C523        H536   1.079       .  S
N524        C525   1.354       .  A
N524       C2508   1.436       .  S
C525        H526   1.082       .  S
C527        N528   1.356       .  A
C527        H537   1.078       .  S
N528        C529   1.346       .  A
N528       C2313   1.445       .  S
C529        H535   1.081   1_565  S
C530        N531   1.360   1_565  A
C530        H532   1.082       .  S
N531        C533   1.352       .  A
N531       C2337   1.434       .  S
C533        H534   1.083       .  S
C538        C540   1.508       .  S
C538        C542   1.525       .  S
C538        C541   1.560       .  S
C538       C2592   1.542       .  S
C539        C543   1.552       .  S
C539        C545   1.544       .  S
C539        C544   1.537       .  S
C539       C2289   1.544       .  S
C540        C548   1.362       .  A
C540        C543   1.400       .  A
C541        C552   1.385       .  A
C541        C544   1.399       .  A
C542        C556   1.356       .  A
C542        C545   1.399       .  A
C543        C546   1.377       .  A
C544        C550   1.384       .  A
C545        C553   1.393       .  A
C546        N547   1.360       .  A
C546        H559   1.082       .  S
N547        C548   1.346       .  A
N547       C2301   1.420       .  S
C548        H549   1.083       .  S
C550        N551   1.356       .  A
C550        H560   1.081       .  S
N551        C552   1.357       .  A
N551       C2277   1.445       .  S
C552        H558   1.081       .  S
C553        N554   1.348       .  A
C553        H555   1.083       .  S
N554        C556   1.339       .  A
N554       C2541   1.415       .  S
C556        H557   1.085       .  S
Zn561       O565   1.952       .  S
Zn561       O566   2.019       .  S
Zn561       O570   1.966       .  S
Zn561       O577   2.011       .  S
Zn562       O565   1.918       .  S
Zn562       O567   2.038       .  S
Zn562       O569   1.931       .  S
Zn562       O573   1.985       .  S
Zn563       O565   1.958       .  S
Zn563       O568   1.980       .  S
Zn563       O571   1.976       .  S
Zn563       O574   1.960       .  S
Zn564       O565   1.939       .  S
Zn564       O572   2.270       .  S
Zn564       O575   2.242       .  S
Zn564       O576   2.245       .  S
O566        C578   1.270       .  A
O567        C579   1.271       .  A
O568        C580   1.269       .  A
O569        C578   1.266       .  A
O570        C580   1.273       .  A
O571        C579   1.264       .  A
O572        C581   1.304       .  A
O573        C582   1.272       .  A
O574        C581   1.259       .  A
O575        C582   1.307       .  A
O576        C583   1.301       .  A
O577        C583   1.269       .  A
C578       C2241   1.455       .  S
C579       C2253   1.470       .  S
C580       C2265   1.445       .  S
C581       C2229   1.537       .  S
C582       C2484   1.534       .  S
C583       C2820   1.545       .  S
Zn584       O588   1.955       .  S
Zn584       O589   2.069       .  S
Zn584       O593   2.042       .  S
Zn584       O600   1.979       .  S
Zn585       O588   1.945       .  S
Zn585       O590   2.080       .  S
Zn585       O592   2.061       .  S
Zn585       O596   1.967       .  S
Zn586       O588   1.934       .  S
Zn586       O591   2.100       .  S
Zn586       O594   2.078       .  S
Zn586       O597   1.955       .  S
Zn587       O588   1.955       .  S
Zn587       O595   1.971       .  S
Zn587       O598   1.930       .  S
Zn587       O599   1.944       .  S
O589        C601   1.279       .  A
O590        C602   1.284       .  A
O591        C603   1.287       .  A
O592        C601   1.283       .  A
O593        C603   1.281       .  A
O594        C602   1.285       .  A
O595        C604   1.262       .  A
O596        C605   1.263       .  A
O597        C604   1.265       .  A
O598        C605   1.262       .  A
O599        C606   1.263       .  A
O600        C606   1.267       .  A
C601       C3396   1.512       .  S
C602       C2772   1.524       .  S
C603       C2529   1.524       .  S
C604       C2217   1.473       .  S
C605       C2205   1.453       .  S
C606       C2196   1.459       .  S
N607        C611   1.353       .  A
N607        C608   1.342   1_545  A
N607       C2316   1.439       .  S
C608        C609   1.379   1_565  A
C608       C2256   1.477       .  S
C609        C610   1.384       .  A
C609       C2181   1.448   1_545  S
C610        C611   1.387       .  A
C610       C3384   1.501       .  S
C611       C2193   1.453       .  S
N612        C616   1.346       .  A
N612        C613   1.340       .  A
N612       C3360   1.446       .  S
C613        C614   1.384       .  A
C613       C2208   1.459       .  S
C614        C615   1.390       .  A
C614       C2697   1.467       .  S
C615        C616   1.388       .  A
C615       C2976   1.499       .  S
C616       C2169   1.439       .  S
Zn617       O621   1.909       .  S
Zn617       O622   2.053       .  S
Zn617       O626   2.069       .  S
Zn617       O633   1.985       .  S
Zn618       O621   1.900       .  S
Zn618       O623   2.056       .  S
Zn618       O625   2.028       .  S
Zn618       O629   1.965       .  S
Zn619       O621   1.901       .  S
Zn619       O624   2.094       .  S
Zn619       O627   2.091       .  S
Zn619       O630   1.958       .  S
Zn620       O621   1.897       .  S
Zn620       O628   1.938       .  S
Zn620       O631   1.949       .  S
Zn620       O632   1.934       .  S
O622        C634   1.284       .  A
O623        C635   1.284       .  A
O624        C636   1.290       .  A
O625        C634   1.281       .  A
O626        C636   1.285       .  A
O627        C635   1.287       .  A
O628        C637   1.261       .  A
O629        C638   1.263       .  A
O630        C637   1.266       .  A
O631        C638   1.262       .  A
O632        C639   1.263       .  A
O633        C639   1.269       .  A
C634       C2568   1.511       .  S
C635       C3108   1.527       .  S
C636       C3573   1.512       .  S
C637       C2172   1.460       .  S
C638       C2157   1.450       .  S
C639       C2148   1.448       .  S
N640        C644   1.344       .  A
N640        C641   1.348   1_545  A
N640       C2352   1.444       .  S
C641        C642   1.380   1_565  A
C641       C2133   1.435       .  S
C642        C643   1.374       .  A
C642       C2124   1.494   1_545  S
C643        C644   1.379       .  A
C643       C3372   1.456       .  S
C644       C2145   1.449       .  S
Zn645       O649   1.900       .  S
Zn645       O650   2.060       .  S
Zn645       O654   2.023       .  S
Zn645       O661   2.016       .  S
Zn646       O649   1.908       .  S
Zn646       O651   2.074       .  S
Zn646       O653   2.055       .  S
Zn646       O657   1.933       .  S
Zn647       O649   1.921       .  S
Zn647       O652   2.084       .  S
Zn647       O655   2.110       .  S
Zn647       O658   2.001       .  S
Zn648       O649   1.895       .  S
Zn648       O656   1.949       .  S
Zn648       O659   1.948       .  S
Zn648       O660   1.988       .  S
O650        C662   1.282       .  A
O651        C663   1.284       .  A
O652        C664   1.290       .  A
O653        C662   1.285       .  A
O654        C664   1.282       .  A
O655        C663   1.290       .  A
O656        C665   1.262       .  A
O657        C666   1.264       .  A
O658        C665   1.269       .  A
O659        C666   1.265       .  A
O660        C667   1.267       .  A
O661        C667   1.271       .  A
C662       C2436   1.513       .  S
C663       C2088   1.531       .  S
C664       C3060   1.511       .  S
C665       C2100   1.467       .  S
C666       C2136   1.435       .  S
C667       C2109   1.473       .  S
N668        C672   1.346       .  A
N668        C669   1.341       .  A
N668       C2073   1.430       .  S
C669        C670   1.373       .  A
C669       C2097   1.458       .  S
C670        C671   1.370       .  A
C670       C3045   1.454       .  S
C671        C672   1.378       .  A
C671       C2661   1.468   1_455  S
C672       C2268   1.455   1_455  S
N673        C677   1.356       .  A
N673        C674   1.367   1_554  A
N673       C3021   1.463       .  S
C674        C675   1.406   1_556  A
C674       C2112   1.477       .  S
C675        C676   1.385       .  A
C675       C2364   1.498   1_554  S
C676        C677   1.381       .  A
C676       C3648   1.479       .  S
C677       C2061   1.472       .  S
Zn678       O682   1.967       .  S
Zn678       O683   2.228       .  S
Zn678       O687   2.221       .  S
Zn678       O694   2.201       .  S
Zn679       O682   1.939       .  S
Zn679       O684   2.013       .  S
Zn679       O686   1.983       .  S
Zn679       O690   1.991       .  S
Zn680       O682   1.935       .  S
Zn680       O685   1.967       .  S
Zn680       O688   1.981       .  S
Zn680       O691   1.990       .  S
Zn681       O682   1.937       .  S
Zn681       O689   1.982       .  S
Zn681       O692   2.008       .  S
Zn681       O693   1.987       .  S
O683        C695   1.304       .  A
O684        C696   1.269       .  A
O685        C697   1.267       .  A
O686        C695   1.271       .  A
O687        C697   1.301       .  A
O688        C696   1.268       .  A
O689        C698   1.271       .  A
O690        C699   1.271       .  A
O691        C698   1.268       .  A
O692        C699   1.270       .  A
O693        C700   1.269       .  A
O694        C700   1.299       .  A
C695       C3240   1.521       .  S
C696       C2040   1.461       .  S
C697       C2025   1.529       .  S
C698       C2049   1.469       .  S
C699       C2064   1.472       .  S
C700       C3780   1.513       .  S
N701        C705   1.338       .  A
N701        C702   1.362       .  A
N701       C2001   1.446       .  S
C702        C703   1.416       .  A
C702       C2013   1.481   1_455  S
C703        C704   1.394       .  A
C703       C2676   1.513       .  S
C704        C705   1.371       .  A
C704       C3033   1.458       .  S
C705       C2037   1.473       .  S
Zn706       O710   1.889       .  S
Zn706       O711   2.046       .  S
Zn706       O715   2.060       .  S
Zn706       O722   1.958       .  S
Zn707       O710   1.924       .  S
Zn707       O712   2.094       .  S
Zn707       O714   2.101       .  S
Zn707       O718   1.949       .  S
Zn708       O710   1.917       .  S
Zn708       O713   2.097       .  S
Zn708       O716   2.110       .  S
Zn708       O719   1.946       .  S
Zn709       O710   1.969       .  S
Zn709       O717   1.995       .  S
Zn709       O720   1.934       .  S
Zn709       O721   2.001       .  S
O711        C723   1.280       .  A
O712        C724   1.289       .  A
O713        C725   1.287       .  A
O714        C723   1.291       .  A
O715        C725   1.282       .  A
O716        C724   1.290       .  A
O717        C726   1.264       .  A
O718        C727   1.260       .  A
O719        C726   1.258       .  A
O720        C727   1.263       .  A
O721        C728   1.270       .  A
O722        C728   1.269       .  A
C723       C2865   1.513       .  S
C724       C3732   1.537       .  S
C725       C1965   1.527       .  S
C726       C1989   1.467       .  S
C727       C1977   1.452       .  S
C728       C2016   1.459       .  S
N729        C733   1.350   1_554  A
N729        C730   1.342       .  A
N729       C2649   1.439       .  S
C730        C731   1.371       .  A
C730       C1980   1.459       .  S
C731        C732   1.391   1_554  A
C731       C3720   1.474       .  S
C732        C733   1.399       .  A
C732       C2325   1.499       .  S
C733       C2244   1.461       .  S
Zn734       O738   1.933       .  S
Zn734       O739   2.005       .  S
Zn734       O743   1.961       .  S
Zn734       O750   1.950       .  S
Zn735       O738   1.919       .  S
Zn735       O740   1.971       .  S
Zn735       O742   1.951       .  S
Zn735       O746   1.965       .  S
Zn736       O738   1.926       .  S
Zn736       O741   2.256       .  S
Zn736       O744   2.245       .  S
Zn736       O747   2.267       .  S
Zn737       O738   1.900       .  S
Zn737       O745   1.924       .  S
Zn737       O748   1.935       .  S
Zn737       O749   2.021       .  S
O739        C751   1.270       .  A
O740        C752   1.265       .  A
O741        C753   1.304       .  A
O742        C751   1.267       .  A
O743        C753   1.261       .  A
O744        C752   1.305       .  A
O745        C754   1.262       .  A
O746        C755   1.268       .  A
O747        C754   1.307       .  A
O748        C755   1.260       .  A
O749        C756   1.271       .  A
O750        C756   1.265       .  A
C751       C1929   1.461       .  S
C752       C3864   1.526       .  S
C753       C3192   1.530       .  S
C754       C3528   1.530       .  S
C755       C1941   1.452       .  S
C756       C1956   1.458       .  S
N757        C761   1.348   1_455  A
N757        C758   1.347       .  A
N757       C3288   1.443       .  S
C758        C759   1.387       .  A
C758       C1953   1.463       .  S
C759        C760   1.376       .  A
C759       C2961   1.463       .  S
C760        C761   1.375   1_455  A
C760       C2712   1.484   1_455  S
C761       C1920   1.444       .  S
N762        C766   1.342   1_545  A
N762        C763   1.353       .  A
N762       C3621   1.459       .  S
C763        C764   1.403       .  A
C763       C1944   1.445       .  S
C764        C765   1.393   1_545  A
C764       C3300   1.519       .  S
C765        C766   1.394       .  A
C765       C1908   1.472       .  S
C766       C2052   1.469       .  S
N767        C771   1.350   1_554  A
N767        C768   1.352       .  A
N767       C2952   1.449       .  S
C768        C769   1.396       .  A
C768       C1932   1.477       .  S
C769        C770   1.378       .  A
C769       C3636   1.469       .  S
C770        C771   1.377   1_554  A
C770       C2373   1.481   1_554  S
C771       C2160   1.451       .  S
N772        C776   1.358       .  A
N772        C773   1.370   1_545  A
N772       C3693   1.441       .  S
C773        C774   1.402       .  A
C773       C1992   1.501       .  S
C774        C775   1.355   1_565  A
C774       C1881   1.481       .  S
C775        C776   1.370       .  A
C775       C3309   1.466       .  S
C776       C1893   1.474       .  S
Zn777       O781   1.891       .  S
Zn777       O782   1.918       .  S
Zn777       O786   1.996       .  S
Zn777       O793   1.944       .  S
Zn778       O781   1.904       .  S
Zn778       O783   1.951       .  S
Zn778       O785   1.998       .  S
Zn778       O789   1.969       .  S
Zn779       O781   1.900       .  S
Zn779       O784   1.960       .  S
Zn779       O787   1.965       .  S
Zn779       O790   1.913       .  S
Zn780       O781   1.919       .  S
Zn780       O788   2.175       .  S
Zn780       O791   2.221       .  S
Zn780       O792   2.179       .  S
O782        C794   1.265       .  A
O783        C795   1.267       .  A
O784        C796   1.265       .  A
O785        C794   1.268       .  A
O786        C796   1.268       .  A
O787        C795   1.265       .  A
O788        C797   1.296       .  A
O789        C798   1.266       .  A
O790        C797   1.262       .  A
O791        C798   1.301       .  A
O792        C799   1.295       .  A
O793        C799   1.265       .  A
C794       C1896   1.440       .  S
C795       C1917   1.450       .  S
C796       C1869   1.467       .  S
C797       C2904   1.487       .  S
C798       C3444   1.516       .  S
C799       C3912   1.505       .  S
N800        C804   1.351       .  A
N800        C801   1.348   1_554  A
N800       C2685   1.441       .  S
C801        C802   1.377       .  A
C801       C2220   1.454       .  S
C802        C803   1.372   1_556  A
C802       C2340   1.471       .  S
C803        C804   1.383       .  A
C803       C3708   1.465       .  S
C804       C1872   1.468       .  S
N805        C809   1.367       .  A
N805        C806   1.348       .  A
N805       C1833   1.469       .  S
C806        C807   1.436       .  A
C806       C2028   1.532       .  S
C807        C808   1.451       .  A
C807       C1860   1.516       .  S
C808        C809   1.435       .  A
C808       C1216   1.591       .  S
C809       C1848   1.479       .  S
N810        C814   1.383       .  A
N810        C811   1.373       .  A
N810       C1821   1.413       .  S
C811        C812   1.358       .  A
C811       C2085   1.525       .  S
C812        C813   1.395       .  A
C812       C1797   1.498       .  S
C813        C814   1.402       .  A
C813       C1812   1.437       .  S
C814       C1217   1.574       .  S
N815        C819   1.386       .  A
N815        C816   1.345       .  A
N815       C2232   1.490       .  S
C816        C817   1.411       .  A
C816       C1761   1.511       .  S
C817        C818   1.443       .  A
C817       C1773   1.489       .  S
C818        C819   1.460       .  A
C818       C1218   1.609       .  S
C819       C1785   1.496       .  S
N820        C824   1.323       .  A
N820        C821   1.372       .  A
N820       C1725   1.464       .  S
C821        C822   1.435       .  A
C821       C1737   1.452       .  S
C822        C823   1.436       .  A
C822       C1215   1.606       .  S
C823        C824   1.404       .  A
C823       C1749   1.444       .  S
C824       C1968   1.522       .  S
C825        C827   1.507       .  S
C825        C829   1.547       .  S
C825        C828   1.552       .  S
C825       C1701   1.544       .  S
C826        C830   1.516       .  S
C826        C832   1.538       .  S
C826        C831   1.540       .  S
C826       C1776   1.551       .  S
C827        C835   1.370       .  A
C827        C830   1.378       .  A
C828        C839   1.385       .  A
C828        C831   1.392       .  A
C829        C843   1.363       .  A
C829        C832   1.435       .  A
C830        C833   1.351       .  A
C831        C837   1.373       .  A
C832        C840   1.378       .  A
C833        N834   1.351       .  A
C833        H846   1.084       .  S
N834        C835   1.349       .  A
N834       C1740   1.404       .  S
C835        H836   1.083       .  S
C837        N838   1.357       .  A
C837        H847   1.082       .  S
N838        C839   1.361       .  A
N838       C1689   1.449       .  S
C839        H845   1.079       .  S
C840        N841   1.349       .  A
C840        H842   1.083       .  S
N841        C843   1.344       .  A
N841       C1713   1.417       .  S
C843        H844   1.084       .  S
C848        C850   1.515       .  S
C848        C852   1.516       .  S
C848        C851   1.534       .  S
C848       C1752   1.513       .  S
C849        C853   1.557       .  S
C849        C855   1.573       .  S
C849        C854   1.545       .  S
C849       C1905   1.521       .  S
C850        C858   1.355       .  A
C850        C853   1.373       .  A
C851        C862   1.378       .  A
C851        C854   1.391       .  A
C852        C866   1.368   1_455  A
C852        C855   1.399       .  A
C853        C856   1.407       .  A
C854        C860   1.385       .  A
C855        C863   1.393   1_455  A
C856        N857   1.368       .  A
C856        H869   1.081       .  S
N857        C858   1.341       .  A
N857       C1857   1.444       .  S
C858        H859   1.081       .  S
C860        N861   1.359       .  A
C860        H870   1.082       .  S
N861        C862   1.354       .  A
N861       C2004   1.443       .  S
C862        H868   1.083       .  S
C863        N864   1.360       .  A
C863        H865   1.080       .  S
N864        C866   1.347       .  A
N864       C1884   1.430       .  S
C866        H867   1.083       .  S
C871        C873   1.570       .  S
C871        C875   1.546       .  S
C871        C874   1.531       .  S
C871       C2184   1.528       .  S
C872        C876   1.536       .  S
C872        C878   1.535       .  S
C872        C877   1.532       .  S
C872       C1824   1.516       .  S
C873        C881   1.382       .  A
C873        C876   1.427       .  A
C874        C885   1.379       .  A
C874        C877   1.374       .  A
C875        C889   1.399   1_455  A
C875        C878   1.380       .  A
C876        C879   1.387       .  A
C877        C883   1.377       .  A
C878        C886   1.372       .  A
C879        N880   1.352       .  A
C879        H892   1.083       .  S
N880        C881   1.352       .  A
N880       C2121   1.438       .  S
C881        H882   1.080       .  S
C883        N884   1.353       .  A
C883        H893   1.083       .  S
N884        C885   1.358       .  A
N884       C2076   1.436       .  S
C885        H891   1.082       .  S
C886        N887   1.343   1_455  A
C886        H888   1.082       .  S
N887        C889   1.359       .  A
N887       C1788   1.436       .  S
C889        H890   1.082       .  S
C894        C896   1.533       .  S
C894        C898   1.509       .  S
C894        C897   1.552       .  S
C894       C1845   1.543       .  S
C895        C899   1.552       .  S
C895        C901   1.518       .  S
C895        C900   1.537       .  S
C895       C1665   1.540       .  S
C896        C904   1.367       .  A
C896        C899   1.436       .  A
C897        C908   1.389       .  A
C897        C900   1.385       .  A
C898        C912   1.352       .  A
C898        C901   1.377       .  A
C899        C902   1.368       .  A
C900        C906   1.377       .  A
C901        C909   1.374       .  A
C902        N903   1.348       .  A
C902        H915   1.083       .  S
N903        C904   1.342       .  A
N903       C1677   1.410       .  S
C904        H905   1.083       .  S
C906        N907   1.355       .  A
C906        H916   1.081       .  S
N907        C908   1.362       .  A
N907       C1656   1.449       .  S
C908        H914   1.082       .  S
C909        N910   1.359       .  A
C909        H911   1.082       .  S
N910        C912   1.351       .  A
N910       C1809   1.413       .  S
C912        H913   1.085       .  S
N917        C921   1.343       .  A
N917        C918   1.344       .  A
N917       C3492   1.433       .  S
C918        C919   1.379       .  A
C918       C1629   1.446       .  S
C919        C920   1.369       .  A
C919       C2304   1.477       .  S
C920        C921   1.372       .  A
C920       C3840   1.453       .  S
C921       C1641   1.452       .  S
N922        C926   1.352       .  A
N922        C923   1.343       .  A
N922       C3156   1.447       .  S
C923        C924   1.384       .  A
C923       C1608   1.467       .  S
C924        C925   1.379       .  A
C924       C1680   1.456       .  S
C925        C926   1.388       .  A
C925       C3504   1.508       .  S
C926       C1617   1.432       .  S
N927        C931   1.346       .  A
N927        C928   1.345       .  A
N927       C3825   1.445       .  S
C928        C929   1.385       .  A
C928       C1581   1.453       .  S
C929        C930   1.374       .  A
C929       C2640   1.470       .  S
C930        C931   1.380       .  A
C930       C3168   1.469       .  S
C931       C1593   1.451       .  S
Zn932       O936   1.888       .  S
Zn932       O937   1.967       .  S
Zn932       O941   2.115       .  S
Zn932       O948   2.125       .  S
Zn933       O936   1.904       .  S
Zn933       O938   1.951       .  S
Zn933       O940   1.960       .  S
Zn933       O944   1.961       .  S
Zn934       O936   1.888       .  S
Zn934       O939   2.018       .  S
Zn934       O942   1.973       .  S
Zn934       O945   2.068       .  S
Zn935       O936   1.852       .  S
Zn935       O943   2.015       .  S
Zn935       O946   1.918       .  S
Zn935       O947   2.056       .  S
O937        C949   1.263       .  A
O938        C950   1.262       .  A
O939        C951   1.283       .  A
O940        C949   1.262       .  A
O941        C951   1.295       .  A
O942        C950   1.267       .  A
O943        C952   1.277       .  A
O944        C953   1.265       .  A
O945        C952   1.285       .  A
O946        C953   1.266       .  A
O947        C954   1.279       .  A
O948        C954   1.292       .  A
C949       C1644   1.454       .  S
C950       C1596   1.470       .  S
C951       C3876   1.519       .  S
C952       C3204   1.510       .  S
C953       C1620   1.437       .  S
C954       C3540   1.518       .  S
Zn955       O959   1.907       .  S
Zn955       O960   1.969       .  S
Zn955       O964   1.925       .  S
Zn955       O971   1.974       .  S
Zn956       O959   1.905       .  S
Zn956       O961   1.945       .  S
Zn956       O963   2.032       .  S
Zn956       O967   1.949       .  S
Zn957       O959   1.907       .  S
Zn957       O962   2.185       .  S
Zn957       O965   2.164       .  S
Zn957       O968   2.192       .  S
Zn958       O959   1.907       .  S
Zn958       O966   1.997       .  S
Zn958       O969   1.978       .  S
Zn958       O970   1.942       .  S
O960        C972   1.264       .  A
O961        C973   1.268       .  A
O962        C974   1.297       .  A
O963        C972   1.270       .  A
O964        C974   1.261       .  A
O965        C973   1.297       .  A
O966        C975   1.270       .  A
O967        C976   1.265       .  A
O968        C975   1.297       .  A
O969        C976   1.266       .  A
O970        C977   1.269       .  A
O971        C977   1.268       .  A
C972       C1560   1.462       .  S
C973       C3456   1.488       .  S
C974       C3924   1.495       .  S
C975       C2913   1.519       .  S
C976       C1569   1.444       .  S
C977       C1584   1.437       .  S
Zn978       O982   1.930       .  S
Zn978       O983   2.075       .  S
Zn978       O987   2.071       .  S
Zn978       O994   1.985       .  S
Zn979       O982   1.956       .  S
Zn979       O984   2.051       .  S
Zn979       O986   2.091       .  S
Zn979       O990   1.997       .  S
Zn980       O982   1.936       .  S
Zn980       O985   2.055       .  S
Zn980       O988   2.047       .  S
Zn980       O991   1.963       .  S
Zn981       O982   1.939       .  S
Zn981       O989   1.956       .  S
Zn981       O992   1.948       .  S
Zn981       O993   1.947       .  S
O983        C995   1.286       .  A
O984        C996   1.285       .  A
O985        C997   1.281       .  A
O986        C995   1.284       .  A
O987        C997   1.284       .  A
O988        C996   1.279       .  A
O989        C998   1.262       .  A
O990        C999   1.268       .  A
O991        C998   1.266       .  A
O992        C999   1.264       .  A
O993       C1000   1.266       .  A
O994       C1000   1.265       .  A
C995       C1836   1.519       .  S
C996       C3252   1.510       .  S
C997       C3792   1.523       .  S
C998       C1545   1.471       .  S
C999       C1605   1.466       .  S
C1000      C1533   1.464       .  S
Zn1001     O1005   1.959       .  S
Zn1001     O1006   2.105       .  S
Zn1001     O1010   2.000       .  S
Zn1001     O1017   2.084       .  S
Zn1002     O1005   1.956       .  S
Zn1002     O1007   1.938       .  S
Zn1002     O1009   2.175       .  S
Zn1002     O1013   2.175       .  S
Zn1003     O1005   1.951       .  S
Zn1003     O1008   1.973       .  S
Zn1003     O1011   1.963       .  S
Zn1003     O1014   1.982       .  S
Zn1004     O1005   1.940       .  S
Zn1004     O1012   1.981       .  S
Zn1004     O1015   2.091       .  S
Zn1004     O1016   2.092       .  S
O1006      C1018   1.286       .  A
O1007      C1019   1.260       .  A
O1008      C1020   1.265       .  A
O1009      C1018   1.298       .  A
O1010      C1020   1.270       .  A
O1011      C1019   1.267       .  A
O1012      C1021   1.269       .  A
O1013      C1022   1.296       .  A
O1014      C1021   1.268       .  A
O1015      C1022   1.285       .  A
O1016      C1023   1.287       .  A
O1017      C1023   1.286       .  A
C1018      C3588   1.542       .  S
C1019      C1632   1.464       .  S
C1020      C1509   1.470       .  S
C1021      C1521   1.463       .  S
C1022      C2580   1.558       .  S
C1023      C3120   1.529       .  S
N1024      C1028   1.350       .  A
N1024      C1025   1.334       .  A
N1024      C3660   1.433       .  S
C1025      C1026   1.366       .  A
C1025      C1548   1.456       .  S
C1026      C1027   1.374       .  A
C1026      C3180   1.439       .  S
C1027      C1028   1.386       .  A
C1027      C2628   1.491       .  S
C1028      C1497   1.447       .  S
N1029      C1033   1.346       .  A
N1029      C1030   1.341       .  A
N1029      C1692   1.440       .  S
C1030      C1031   1.371       .  A
C1030      C1485   1.448       .  S
C1031      C1032   1.373       .  A
C1031      C2412   1.469       .  S
C1032      C1033   1.390       .  A
C1032      C3684   1.468       .  S
C1033      C1473   1.453       .  S
N1034      C1038   1.348       .  A
N1034      C1035   1.344       .  A
N1034      C2613   1.445       .  S
C1035      C1036   1.387       .  A
C1035      C1572   1.458       .  S
C1036      C1037   1.383       .  A
C1036      C3336   1.472       .  S
C1037      C1038   1.385       .  A
C1037      C1704   1.482       .  S
C1038      C1461   1.454       .  S
Zn1039     O1043   1.888       .  S
Zn1039     O1044   2.217       .  S
Zn1039     O1048   2.204       .  S
Zn1039     O1055   2.203       .  S
Zn1040     O1043   1.866       .  S
Zn1040     O1045   1.990       .  S
Zn1040     O1047   1.873       .  S
Zn1040     O1051   1.933       .  S
Zn1041     O1043   1.877       .  S
Zn1041     O1046   1.954       .  S
Zn1041     O1049   1.955       .  S
Zn1041     O1052   1.997       .  S
Zn1042     O1043   1.868       .  S
Zn1042     O1050   1.914       .  S
Zn1042     O1053   2.013       .  S
Zn1042     O1054   1.927       .  S
O1044      C1056   1.302       .  A
O1045      C1057   1.268       .  A
O1046      C1058   1.266       .  A
O1047      C1056   1.256       .  A
O1048      C1058   1.301       .  A
O1049      C1057   1.267       .  A
O1050      C1059   1.265       .  A
O1051      C1060   1.259       .  A
O1052      C1059   1.271       .  A
O1053      C1060   1.269       .  A
O1054      C1061   1.264       .  A
O1055      C1061   1.301       .  A
C1056      C1728   1.491       .  S
C1057      C1476   1.451       .  S
C1058      C3744   1.508       .  S
C1059      C1500   1.448       .  S
C1060      C1464   1.468       .  S
C1061      C2856   1.500       .  S
N1062      C1066   1.350       .  A
N1062      C1063   1.354       .  A
N1062      C3324   1.451       .  S
C1063      C1064   1.399       .  A
C1063      C1557   1.474       .  S
C1064      C1065   1.382       .  A
C1064      C3852   1.482       .  S
C1065      C1066   1.383       .  A
C1065      C2292   1.477       .  S
C1066      C1449   1.464       .  S
N1067      C1071   1.348       .  A
N1067      C1068   1.350       .  A
N1067      C2724   1.447       .  S
C1068      C1069   1.394       .  A
C1068      C1437   1.475       .  S
C1069      C1070   1.380       .  A
C1069      C1716   1.461       .  S
C1070      C1071   1.378       .  A
C1070      C3348   1.495       .  S
C1071      C1425   1.440       .  S
N1072      C1076   1.349       .  A
N1072      C1073   1.347       .  A
N1072      C2280   1.439       .  S
C1073      C1074   1.380       .  A
C1073      C1524   1.461       .  S
C1074      C1075   1.371       .  A
C1074      C3000   1.458       .  S
C1075      C1076   1.376       .  A
C1075      C2736   1.473       .  S
C1076      C1413   1.453       .  S
Zn1077     O1081   1.862       .  S
Zn1077     O1082   2.253       .  S
Zn1077     O1086   2.258       .  S
Zn1077     O1093   2.309       .  S
Zn1078     O1081   1.834       .  S
Zn1078     O1083   1.928       .  S
Zn1078     O1085   1.919       .  S
Zn1078     O1089   2.015       .  S
Zn1079     O1081   1.867       .  S
Zn1079     O1084   2.002       .  S
Zn1079     O1087   1.993       .  S
Zn1079     O1090   1.921       .  S
Zn1080     O1081   1.916       .  S
Zn1080     O1088   1.982       .  S
Zn1080     O1091   1.977       .  S
Zn1080     O1092   1.944       .  S
O1082      C1094   1.311       .  A
O1083      C1095   1.269       .  A
O1084      C1096   1.267       .  A
O1085      C1094   1.267       .  A
O1086      C1096   1.303       .  A
O1087      C1095   1.270       .  A
O1088      C1097   1.270       .  A
O1089      C1098   1.271       .  A
O1090      C1097   1.261       .  A
O1091      C1098   1.268       .  A
O1092      C1099   1.267       .  A
O1093      C1099   1.312       .  A
C1094      C2520   1.513       .  S
C1095      C1416   1.443       .  S
C1096      C2760   1.551       .  S
C1097      C1428   1.449       .  S
C1098      C1452   1.469       .  S
C1099      C3408   1.555       .  S
N1100      C1104   1.351       .  A
N1100      C1101   1.341       .  A
N1100      C2988   1.451       .  S
C1101      C1102   1.392       .  A
C1101      C1512   1.471       .  S
C1102      C1103   1.403       .  A
C1102      C3516   1.474       .  S
C1103      C1104   1.402       .  A
C1103      C1668   1.515       .  S
C1104      C1404   1.462       .  S
N1105      C1109   1.350       .  A
N1105      C1106   1.343       .  A
N1105      C2388   1.439       .  S
C1106      C1107   1.377       .  A
C1106      C1389   1.460       .  S
C1107      C1108   1.376       .  A
C1107      C2745   1.461       .  S
C1108      C1109   1.387       .  A
C1108      C3012   1.478       .  S
C1109      C1377   1.461       .  S
N1110      C1114   1.353       .  A
N1110      C1111   1.343       .  A
N1110      C1653   1.443       .  S
C1111      C1112   1.368       .  A
C1111      C1536   1.452       .  S
C1112      C1113   1.373       .  A
C1112      C3672   1.459       .  S
C1113      C1114   1.391       .  A
C1113      C2400   1.479       .  S
C1114      C1368   1.460       .  S
Zn1115     O1119   1.890       .  S
Zn1115     O1120   1.945       .  S
Zn1115     O1124   1.930       .  S
Zn1115     O1131   1.964       .  S
Zn1116     O1119   1.912       .  S
Zn1116     O1121   2.039       .  S
Zn1116     O1123   1.998       .  S
Zn1116     O1127   2.021       .  S
Zn1117     O1119   1.908       .  S
Zn1117     O1122   2.007       .  S
Zn1117     O1125   2.069       .  S
Zn1117     O1128   2.041       .  S
Zn1118     O1119   1.897       .  S
Zn1118     O1126   2.042       .  S
Zn1118     O1129   2.042       .  S
Zn1118     O1130   1.992       .  S
O1120      C1132   1.259       .  A
O1121      C1133   1.281       .  A
O1122      C1134   1.271       .  A
O1123      C1132   1.266       .  A
O1124      C1134   1.260       .  A
O1125      C1133   1.284       .  A
O1126      C1135   1.280       .  A
O1127      C1136   1.279       .  A
O1128      C1135   1.285       .  A
O1129      C1136   1.282       .  A
O1130      C1137   1.270       .  A
O1131      C1137   1.265       .  A
C1132      C1401   1.467       .  S
C1133      C3072   1.512       .  S
C1134      C1380   1.472       .  S
C1135      C2424   1.504       .  S
C1136      C1800   1.500       .  S
C1137      C1365   1.476       .  S
Zn1138     O1142   1.951       .  S
Zn1138     O1143   2.113       .  S
Zn1138     O1147   2.093       .  S
Zn1138     O1154   1.976       .  S
Zn1139     O1142   1.947       .  S
Zn1139     O1144   2.065       .  S
Zn1139     O1146   2.086       .  S
Zn1139     O1150   1.941       .  S
Zn1140     O1142   1.944       .  S
Zn1140     O1145   2.028       .  S
Zn1140     O1148   2.063       .  S
Zn1140     O1151   1.979       .  S
Zn1141     O1142   1.967       .  S
Zn1141     O1149   1.990       .  S
Zn1141     O1152   1.956       .  S
Zn1141     O1153   1.962       .  S
O1143      C1155   1.288       .  A
O1144      C1156   1.283       .  A
O1145      C1157   1.280       .  A
O1146      C1155   1.282       .  A
O1147      C1157   1.288       .  A
O1148      C1156   1.280       .  A
O1149      C1158   1.266       .  A
O1150      C1159   1.264       .  A
O1151      C1158   1.267       .  A
O1152      C1159   1.265       .  A
O1153      C1160   1.266       .  A
O1154      C1160   1.264       .  A
C1155      C2472   1.525       .  S
C1156      C1764   1.516       .  S
C1157      C2808   1.515       .  S
C1158      C1440   1.479       .  S
C1159      C1488   1.452       .  S
C1160      C1392   1.471       .  S
N1161      C1166   1.387       .  A
N1161      C1165   1.383       .  A
N1161      H1193   1.038   1_655  S
N1162      C1169   1.381       .  A
N1162      C1170   1.383       .  A
N1163      C1168   1.376       .  A
N1163      C1167   1.377       .  A
N1163      H1194   1.040       .  S
N1164      C1171   1.380       .  A
N1164      C1172   1.382       .  A
C1165      C1173   1.385       .  A
C1165      C1181   1.473       .  A
C1166      C1182   1.478       .  A
C1166      C1174   1.388       .  A
C1167      C1175   1.384       .  A
C1167      C1184   1.459       .  A
C1168      C1183   1.456       .  A
C1168      C1176   1.384       .  A
C1169      C1181   1.470   1_455  A
C1169      C1177   1.388       .  A
C1170      C1184   1.471       .  A
C1170      C1178   1.386       .  A
C1171      C1179   1.382       .  A
C1171      C1182   1.468   1_455  A
C1172      C1180   1.384       .  A
C1172      C1183   1.464       .  A
C1173      C1174   1.391       .  A
C1173      H1185   1.081       .  S
C1174      H1186   1.080       .  S
C1175      C1176   1.389       .  A
C1175      H1187   1.083       .  S
C1176      H1188   1.078       .  S
C1177      C1178   1.394       .  A
C1177      H1189   1.082       .  S
C1178      H1190   1.082       .  S
C1179      C1180   1.389       .  A
C1179      H1191   1.076   1_455  S
C1180      H1192   1.082       .  S
N1195      C1200   1.384       .  A
N1195      C1199   1.378       .  A
N1195      H1227   1.038       .  S
N1196      C1203   1.386       .  A
N1196      C1204   1.387       .  A
N1197      C1202   1.380       .  A
N1197      C1201   1.383       .  A
N1197      H1228   1.038       .  S
N1198      C1205   1.378       .  A
N1198      C1206   1.375       .  A
C1199      C1207   1.378       .  A
C1199      C1215   1.466   1_455  A
C1200      C1216   1.461       .  A
C1200      C1208   1.382       .  A
C1201      C1209   1.388       .  A
C1201      C1218   1.468   1_455  A
C1202      C1217   1.467       .  A
C1202      C1210   1.387       .  A
C1203      C1215   1.479       .  A
C1203      C1211   1.388       .  A
C1204      C1218   1.478       .  A
C1204      C1212   1.383       .  A
C1205      C1213   1.382       .  A
C1205      C1216   1.457       .  A
C1206      C1214   1.387       .  A
C1206      C1217   1.457       .  A
C1207      C1208   1.382       .  A
C1207      H1219   1.064       .  S
C1208      H1220   1.082       .  S
C1209      C1210   1.389       .  A
C1209      H1221   1.082       .  S
C1210      H1222   1.080       .  S
C1211      C1212   1.389       .  A
C1211      H1223   1.080       .  S
C1212      H1224   1.076       .  S
C1213      C1214   1.386       .  A
C1213      H1225   1.076       .  S
C1214      H1226   1.082       .  S
N1229      C1234   1.379       .  A
N1229      C1233   1.382       .  A
N1229      H1261   1.037       .  S
N1230      C1237   1.387       .  A
N1230      C1238   1.387   1_554  A
N1231      C1236   1.386       .  A
N1231      C1235   1.384       .  A
N1231      H1262   1.040       .  S
N1232      C1239   1.380       .  A
N1232      C1240   1.383   1_554  A
C1233      C1241   1.387       .  A
C1233      C1249   1.466       .  A
C1234      C1250   1.466       .  A
C1234      C1242   1.389       .  A
C1235      C1243   1.388       .  A
C1235      C1252   1.472       .  A
C1236      C1251   1.473       .  A
C1236      C1244   1.383       .  A
C1237      C1249   1.481       .  A
C1237      C1245   1.388       .  A
C1238      C1252   1.480       .  A
C1238      C1246   1.387   1_556  A
C1239      C1247   1.387       .  A
C1239      C1250   1.467       .  A
C1240      C1248   1.387       .  A
C1240      C1251   1.468       .  A
C1241      C1242   1.386       .  A
C1241      H1253   1.080       .  S
C1242      H1254   1.081       .  S
C1243      C1244   1.391       .  A
C1243      H1255   1.082       .  S
C1244      H1256   1.076       .  S
C1245      C1246   1.394       .  A
C1245      H1257   1.082       .  S
C1246      H1258   1.079   1_554  S
C1247      C1248   1.385   1_554  A
C1247      H1259   1.082       .  S
C1248      H1260   1.079       .  S
N1263      C1268   1.372       .  A
N1263      C1267   1.380       .  A
N1263      H1295   1.038       .  S
N1264      C1271   1.386       .  A
N1264      C1272   1.378   1_565  A
N1265      C1270   1.390       .  A
N1265      C1269   1.387       .  A
N1265      H1296   1.039       .  S
N1266      C1273   1.377   1_545  A
N1266      C1274   1.380       .  A
C1267      C1275   1.385       .  A
C1267      C1283   1.459       .  A
C1268      C1284   1.457       .  A
C1268      C1276   1.388       .  A
C1269      C1277   1.390       .  A
C1269      C1286   1.483       .  A
C1270      C1285   1.482       .  A
C1270      C1278   1.383       .  A
C1271      C1283   1.459       .  A
C1271      C1279   1.376       .  A
C1272      C1286   1.471       .  A
C1272      C1280   1.378       .  A
C1273      C1281   1.386   1_565  A
C1273      C1284   1.456       .  A
C1274      C1282   1.388       .  A
C1274      C1285   1.463       .  A
C1275      C1276   1.384       .  A
C1275      H1287   1.082       .  S
C1276      H1288   1.082       .  S
C1277      C1278   1.394       .  A
C1277      H1289   1.082       .  S
C1278      H1290   1.076       .  S
C1279      C1280   1.376   1_565  A
C1279      H1291   1.082       .  S
C1280      H1292   1.056       .  S
C1281      C1282   1.382       .  A
C1281      H1293   1.082   1_545  S
C1282      H1294   1.080       .  S
N1297      C1302   1.375       .  A
N1297      C1301   1.378       .  A
N1297      H1329   1.040       .  S
N1298      C1305   1.380       .  A
N1298      C1306   1.380       .  A
N1299      C1304   1.378   1_554  A
N1299      C1303   1.378       .  A
N1299      H1330   1.039       .  S
N1300      C1307   1.377       .  A
N1300      C1308   1.380       .  A
C1301      C1309   1.388       .  A
C1301      C1317   1.458       .  A
C1302      C1318   1.454   1_554  A
C1302      C1310   1.381       .  A
C1303      C1311   1.385       .  A
C1303      C1320   1.457       .  A
C1304      C1319   1.465       .  A
C1304      C1312   1.389       .  A
C1305      C1317   1.459       .  A
C1305      C1313   1.375       .  A
C1306      C1320   1.461       .  A
C1306      C1314   1.384       .  A
C1307      C1315   1.386       .  A
C1307      C1318   1.463       .  A
C1308      C1316   1.384       .  A
C1308      C1319   1.459       .  A
C1309      C1310   1.389       .  A
C1309      H1321   1.082       .  S
C1310      H1322   1.074       .  S
C1311      C1312   1.391   1_554  A
C1311      H1323   1.082       .  S
C1312      H1324   1.081       .  S
C1313      C1314   1.382       .  A
C1313      H1325   1.070       .  S
C1314      H1326   1.082       .  S
C1315      C1316   1.386       .  A
C1315      H1327   1.080       .  S
C1316      H1328   1.079       .  S
N1331      C1336   1.376       .  A
N1331      C1335   1.379   1_545  A
N1331      H1363   1.041       .  S
N1332      C1339   1.388       .  A
N1332      C1340   1.384       .  A
N1333      C1338   1.388       .  A
N1333      C1337   1.381   1_545  A
N1333      H1364   1.038       .  S
N1334      C1341   1.382       .  A
N1334      C1342   1.384       .  A
C1335      C1343   1.372   1_565  A
C1335      C1351   1.450       .  A
C1336      C1352   1.454       .  A
C1336      C1344   1.386       .  A
C1337      C1345   1.391       .  A
C1337      C1354   1.476       .  A
C1338      C1353   1.474       .  A
C1338      C1346   1.386       .  A
C1339      C1351   1.475       .  A
C1339      C1347   1.385       .  A
C1340      C1354   1.477       .  A
C1340      C1348   1.388       .  A
C1341      C1349   1.386       .  A
C1341      C1352   1.468       .  A
C1342      C1350   1.378       .  A
C1342      C1353   1.468       .  A
C1343      C1344   1.380       .  A
C1343      H1355   1.077   1_545  S
C1344      H1356   1.081       .  S
C1345      C1346   1.394   1_565  A
C1345      H1357   1.082       .  S
C1346      H1358   1.081       .  S
C1347      C1348   1.393       .  A
C1347      H1359   1.082       .  S
C1348      H1360   1.080       .  S
C1349      C1350   1.387       .  A
C1349      H1361   1.082       .  S
C1350      H1362   1.074       .  S
C1365      C1366   1.407       .  A
C1365      C1370   1.417       .  A
C1366      C1367   1.392       .  A
C1366      H1371   1.084       .  S
C1367      C1368   1.405       .  A
C1367      C1374   1.444       .  S
C1368      C1369   1.395       .  A
C1369      C1370   1.392       .  A
C1369      H1372   1.084       .  S
C1370      C1373   1.443       .  S
C1373      N1375   1.156       .  T
C1374      N1376   1.157       .  T
C1377      C1378   1.395       .  A
C1377      C1382   1.405       .  A
C1378      C1379   1.390       .  A
C1378      H1383   1.081       .  S
C1379      C1380   1.419       .  A
C1379      C1386   1.447       .  S
C1380      C1381   1.404       .  A
C1381      C1382   1.391       .  A
C1381      H1384   1.084       .  S
C1382      C1385   1.443       .  S
C1385      N1387   1.157       .  T
C1386      N1388   1.158       .  T
C1389      C1390   1.397       .  A
C1389      C1394   1.406       .  A
C1390      C1391   1.394       .  A
C1390      H1395   1.085       .  S
C1391      C1392   1.416       .  A
C1391      C1398   1.444       .  S
C1392      C1393   1.403       .  A
C1393      C1394   1.389       .  A
C1393      H1396   1.085       .  S
C1394      C1397   1.443       .  S
C1397      N1399   1.157       .  T
C1398      N1400   1.157       .  T
C1401      C1402   1.407       .  A
C1401      C1406   1.417       .  A
C1402      C1403   1.394       .  A
C1402      H1407   1.084       .  S
C1403      C1404   1.404       .  A
C1403      C1410   1.443       .  S
C1404      C1405   1.396       .  A
C1405      C1406   1.385       .  A
C1405      H1408   1.086       .  S
C1406      C1409   1.447       .  S
C1409      N1411   1.158       .  T
C1410      N1412   1.157       .  T
C1413      C1414   1.401       .  A
C1413      C1418   1.406       .  A
C1414      C1415   1.394       .  A
C1414      H1419   1.085       .  S
C1415      C1416   1.404       .  A
C1415      C1422   1.444       .  S
C1416      C1417   1.398       .  A
C1417      C1418   1.383       .  A
C1417      H1420   1.086       .  S
C1418      C1421   1.444       .  S
C1421      N1423   1.157       .  T
C1422      N1424   1.157       .  T
C1425      C1426   1.389       .  A
C1425      C1430   1.401       .  A
C1426      C1427   1.375       .  A
C1426      H1431   1.085       .  S
C1427      C1428   1.413       .  A
C1427      C1434   1.448       .  S
C1428      C1429   1.405       .  A
C1429      C1430   1.390       .  A
C1429      H1432   1.085       .  S
C1430      C1433   1.444       .  S
C1433      N1435   1.157       .  T
C1434      N1436   1.157       .  T
C1437      C1438   1.403       .  A
C1437      C1442   1.408       .  A
C1438      C1439   1.397       .  A
C1438      H1443   1.085       .  S
C1439      C1440   1.414       .  A
C1439      C1446   1.445       .  S
C1440      C1441   1.406       .  A
C1441      C1442   1.393       .  A
C1441      H1444   1.085       .  S
C1442      C1445   1.442       .  S
C1445      N1447   1.157       .  T
C1446      N1448   1.158       .  T
C1449      C1450   1.398       .  A
C1449      C1454   1.405       .  A
C1450      C1451   1.395       .  A
C1450      H1455   1.085       .  S
C1451      C1452   1.412       .  A
C1451      C1458   1.445       .  S
C1452      C1453   1.405       .  A
C1453      C1454   1.396       .  A
C1453      H1456   1.085       .  S
C1454      C1457   1.444       .  S
C1457      N1459   1.157       .  T
C1458      N1460   1.157       .  T
C1461      C1462   1.398       .  A
C1461      C1466   1.400       .  A
C1462      C1463   1.389       .  A
C1462      H1467   1.084       .  S
C1463      C1464   1.413       .  A
C1463      C1470   1.445       .  S
C1464      C1465   1.410       .  A
C1465      C1466   1.390       .  A
C1465      H1468   1.084       .  S
C1466      C1469   1.445       .  S
C1469      N1471   1.157       .  T
C1470      N1472   1.158       .  T
C1473      C1474   1.399       .  A
C1473      C1478   1.405       .  A
C1474      C1475   1.394       .  A
C1474      H1479   1.084       .  S
C1475      C1476   1.407       .  A
C1475      C1482   1.443       .  S
C1476      C1477   1.398       .  A
C1477      C1478   1.385       .  A
C1477      H1480   1.086       .  S
C1478      C1481   1.442       .  S
C1481      N1483   1.157       .  T
C1482      N1484   1.157       .  T
C1485      C1486   1.396       .  A
C1485      C1490   1.403       .  A
C1486      C1487   1.383       .  A
C1486      H1491   1.085       .  S
C1487      C1488   1.411       .  A
C1487      C1494   1.446       .  S
C1488      C1489   1.403       .  A
C1489      C1490   1.388       .  A
C1489      H1492   1.085       .  S
C1490      C1493   1.444       .  S
C1493      N1495   1.157       .  T
C1494      N1496   1.157       .  T
C1497      C1498   1.397       .  A
C1497      C1502   1.406       .  A
C1498      C1499   1.386       .  A
C1498      H1503   1.083       .  S
C1499      C1500   1.406       .  A
C1499      C1506   1.441       .  S
C1500      C1501   1.401       .  A
C1501      C1502   1.384       .  A
C1501      H1504   1.086       .  S
C1502      C1505   1.444       .  S
C1505      N1507   1.157       .  T
C1506      N1508   1.156       .  T
C1509      C1510   1.405       .  A
C1509      C1514   1.409       .  A
C1510      C1511   1.397       .  A
C1510      H1515   1.085       .  S
C1511      C1512   1.408       .  A
C1511      C1518   1.444       .  S
C1512      C1513   1.397       .  A
C1513      C1514   1.388       .  A
C1513      H1516   1.084       .  S
C1514      C1517   1.439       .  S
C1517      N1519   1.155       .  T
C1518      N1520   1.157       .  T
C1521      C1522   1.402       .  A
C1521      C1526   1.412       .  A
C1522      C1523   1.391       .  A
C1522      H1527   1.085       .  S
C1523      C1524   1.404       .  A
C1523      C1530   1.444       .  S
C1524      C1525   1.399       .  A
C1525      C1526   1.397       .  A
C1525      H1528   1.085       .  S
C1526      C1529   1.445       .  S
C1529      N1531   1.157       .  T
C1530      N1532   1.157       .  T
C1533      C1534   1.406       .  A
C1533      C1538   1.413       .  A
C1534      C1535   1.387       .  A
C1534      H1539   1.085       .  S
C1535      C1536   1.399       .  A
C1535      C1542   1.443       .  S
C1536      C1537   1.398       .  A
C1537      C1538   1.392       .  A
C1537      H1540   1.085       .  S
C1538      C1541   1.444       .  S
C1541      N1543   1.157       .  T
C1542      N1544   1.157       .  T
C1545      C1546   1.406       .  A
C1545      C1550   1.419       .  A
C1546      C1547   1.386       .  A
C1546      H1551   1.085       .  S
C1547      C1548   1.403       .  A
C1547      C1554   1.445       .  S
C1548      C1549   1.394       .  A
C1549      C1550   1.393       .  A
C1549      H1552   1.085       .  S
C1550      C1553   1.445       .  S
C1553      N1555   1.158       .  T
C1554      N1556   1.157       .  T
C1557      C1558   1.403       .  A
C1557      C1562   1.409       .  A
C1558      C1559   1.395       .  A
C1558      H1563   1.084       .  S
C1559      C1560   1.406       .  A
C1559      C1566   1.445       .  S
C1560      C1561   1.403       .  A
C1561      C1562   1.399       .  A
C1561      H1564   1.085       .  S
C1562      C1565   1.444       .  S
C1565      N1567   1.157       .  T
C1566      N1568   1.157       .  T
C1569      C1570   1.401       .  A
C1569      C1574   1.402       .  A
C1570      C1571   1.392       .  A
C1570      H1575   1.085       .  S
C1571      C1572   1.403       .  A
C1571      C1578   1.443       .  S
C1572      C1573   1.400       .  A
C1573      C1574   1.387       .  A
C1573      H1576   1.080       .  S
C1574      C1577   1.446       .  S
C1577      N1579   1.157       .  T
C1578      N1580   1.157       .  T
C1581      C1582   1.399       .  A
C1581      C1586   1.405       .  A
C1582      C1583   1.384       .  A
C1582      H1587   1.084       .  S
C1583      C1584   1.402       .  A
C1583      C1590   1.446       .  S
C1584      C1585   1.399       .  A
C1585      C1586   1.391       .  A
C1585      H1588   1.085       .  S
C1586      C1589   1.442       .  S
C1589      N1591   1.157       .  T
C1590      N1592   1.157       .  T
C1593      C1594   1.395       .  A
C1593      C1598   1.401       .  A
C1594      C1595   1.390       .  A
C1594      H1599   1.086       .  S
C1595      C1596   1.417       .  A
C1595      C1602   1.445       .  S
C1596      C1597   1.406       .  A
C1597      C1598   1.388       .  A
C1597      H1600   1.085       .  S
C1598      C1601   1.443       .  S
C1601      N1603   1.157       .  T
C1602      N1604   1.158       .  T
C1605      C1606   1.401       .  A
C1605      C1610   1.415       .  A
C1606      C1607   1.393       .  A
C1606      H1611   1.085       .  S
C1607      C1608   1.408       .  A
C1607      C1614   1.443       .  S
C1608      C1609   1.397       .  A
C1609      C1610   1.391       .  A
C1609      H1612   1.085       .  S
C1610      C1613   1.445       .  S
C1613      N1615   1.157       .  T
C1614      N1616   1.157       .  T
C1617      C1618   1.391       .  A
C1617      C1622   1.403       .  A
C1618      C1619   1.372       .  A
C1618      H1623   1.086       .  S
C1619      C1620   1.408       .  A
C1619      C1626   1.447       .  S
C1620      C1621   1.401       .  A
C1621      C1622   1.391       .  A
C1621      H1624   1.085       .  S
C1622      C1625   1.443       .  S
C1625      N1627   1.157       .  T
C1626      N1628   1.157       .  T
C1629      C1630   1.392       .  A
C1629      C1634   1.407       .  A
C1630      C1631   1.386       .  A
C1630      H1635   1.086       .  S
C1631      C1632   1.420       .  A
C1631      C1638   1.446       .  S
C1632      C1633   1.402       .  A
C1633      C1634   1.387       .  A
C1633      H1636   1.085       .  S
C1634      C1637   1.444       .  S
C1637      N1639   1.157       .  T
C1638      N1640   1.157       .  T
C1641      C1642   1.397       .  A
C1641      C1646   1.406       .  A
C1642      C1643   1.391       .  A
C1642      H1647   1.085       .  S
C1643      C1644   1.411       .  A
C1643      C1650   1.445       .  S
C1644      C1645   1.398       .  A
C1645      C1646   1.387       .  A
C1645      H1648   1.085       .  S
C1646      C1649   1.441       .  S
C1649      N1651   1.157       .  T
C1650      N1652   1.157       .  T
C1653      C1654   1.400       .  A
C1653      C1658   1.405       .  A
C1654      C1655   1.406       .  A
C1654      H1659   1.084       .  S
C1655      C1656   1.418       .  A
C1655      C1662   1.441       .  S
C1656      C1657   1.407       .  A
C1657      C1658   1.400       .  A
C1657      H1660   1.084       .  S
C1658      C1661   1.442       .  S
C1661      N1663   1.157       .  T
C1662      N1664   1.157       .  T
C1665      C1666   1.408       .  A
C1665      C1670   1.417       .  A
C1666      C1667   1.413       .  A
C1666      H1671   1.084       .  S
C1667      C1668   1.423       .  A
C1667      C1674   1.441       .  S
C1668      C1669   1.404       .  A
C1669      C1670   1.392       .  A
C1669      H1672   1.079       .  S
C1670      C1673   1.445       .  S
C1673      N1675   1.157       .  T
C1674      N1676   1.157       .  T
C1677      C1678   1.395       .  A
C1677      C1682   1.398       .  A
C1678      C1679   1.387       .  A
C1678      H1683   1.085       .  S
C1679      C1680   1.410       .  A
C1679      C1686   1.444       .  S
C1680      C1681   1.402       .  A
C1681      C1682   1.387       .  A
C1681      H1684   1.085       .  S
C1682      C1685   1.442       .  S
C1685      N1687   1.157       .  T
C1686      N1688   1.157       .  T
C1689      C1690   1.410       .  A
C1689      C1694   1.418       .  A
C1690      C1691   1.398       .  A
C1690      H1695   1.082       .  S
C1691      C1692   1.403       .  A
C1691      C1698   1.442       .  S
C1692      C1693   1.400       .  A
C1693      C1694   1.400       .  A
C1693      H1696   1.083       .  S
C1694      C1697   1.443       .  S
C1697      N1699   1.158       .  T
C1698      N1700   1.157       .  T
C1701      C1702   1.407       .  A
C1701      C1706   1.423       .  A
C1702      C1703   1.400       .  A
C1702      H1707   1.075       .  S
C1703      C1704   1.408       .  A
C1703      C1710   1.443       .  S
C1704      C1705   1.399       .  A
C1705      C1706   1.403       .  A
C1705      H1708   1.085       .  S
C1706      C1709   1.444       .  S
C1709      N1711   1.157       .  T
C1710      N1712   1.157       .  T
C1713      C1714   1.403       .  A
C1713      C1718   1.396       .  A
C1714      C1715   1.392       .  A
C1714      H1719   1.085       .  S
C1715      C1716   1.405       .  A
C1715      C1722   1.444       .  S
C1716      C1717   1.403       .  A
C1717      C1718   1.389       .  A
C1717      H1720   1.079       .  S
C1718      C1721   1.442       .  S
C1721      N1723   1.157       .  T
C1722      N1724   1.157       .  T
C1725      C1726   1.406       .  A
C1725      C1730   1.413       .  A
C1726      C1727   1.413       .  A
C1726      H1731   1.083       .  S
C1727      C1728   1.418       .  A
C1727      C1734   1.443       .  S
C1728      C1729   1.408       .  A
C1729      C1730   1.412       .  A
C1729      H1732   1.085       .  S
C1730      C1733   1.441       .  S
C1733      N1735   1.157       .  T
C1734      N1736   1.157       .  T
C1737      C1738   1.400       .  A
C1737      C1742   1.416       .  A
C1738      C1739   1.383       .  A
C1738      H1743   1.085       .  S
C1739      C1740   1.402       .  A
C1739      C1746   1.444       .  S
C1740      C1741   1.390       .  A
C1741      C1742   1.387       .  A
C1741      H1744   1.085       .  S
C1742      C1745   1.439       .  S
C1745      N1747   1.156   1_655  T
C1746      N1748   1.158       .  T
C1749      C1750   1.393       .  A
C1749      C1754   1.412   1_655  A
C1750      C1751   1.391       .  A
C1750      H1755   1.087       .  S
C1751      C1752   1.427   1_655  A
C1751      C1758   1.442       .  S
C1752      C1753   1.404       .  A
C1753      C1754   1.383       .  A
C1753      H1756   1.077       .  S
C1754      C1757   1.443       .  S
C1757      N1759   1.158       .  T
C1758      N1760   1.156       .  T
C1761      C1762   1.405       .  A
C1761      C1766   1.416       .  A
C1762      C1763   1.410       .  A
C1762      H1767   1.085       .  S
C1763      C1764   1.422       .  A
C1763      C1770   1.444       .  S
C1764      C1765   1.412       .  A
C1765      C1766   1.416       .  A
C1765      H1768   1.084       .  S
C1766      C1769   1.442       .  S
C1769      N1771   1.157       .  T
C1770      N1772   1.157       .  T
C1773      C1774   1.393       .  A
C1773      C1778   1.414       .  A
C1774      C1775   1.394       .  A
C1774      H1779   1.082       .  S
C1775      C1776   1.430       .  A
C1775      C1782   1.443       .  S
C1776      C1777   1.411       .  A
C1777      C1778   1.417       .  A
C1777      H1780   1.083       .  S
C1778      C1781   1.441       .  S
C1781      N1783   1.157       .  T
C1782      N1784   1.157       .  T
C1785      C1786   1.409       .  A
C1785      C1790   1.416       .  A
C1786      C1787   1.399       .  A
C1786      H1791   1.083       .  S
C1787      C1788   1.406       .  A
C1787      C1794   1.443       .  S
C1788      C1789   1.401       .  A
C1789      C1790   1.402       .  A
C1789      H1792   1.085       .  S
C1790      C1793   1.439       .  S
C1793      N1795   1.156       .  T
C1794      N1796   1.158       .  T
C1797      C1798   1.404       .  A
C1797      C1802   1.410       .  A
C1798      C1799   1.400       .  A
C1798      H1803   1.084       .  S
C1799      C1800   1.420       .  A
C1799      C1806   1.445       .  S
C1800      C1801   1.411       .  A
C1801      C1802   1.410       .  A
C1801      H1804   1.084       .  S
C1802      C1805   1.442       .  S
C1805      N1807   1.157       .  T
C1806      N1808   1.158       .  T
C1809      C1810   1.400       .  A
C1809      C1814   1.411       .  A
C1810      C1811   1.398       .  A
C1810      H1815   1.084       .  S
C1811      C1812   1.408       .  A
C1811      C1818   1.443       .  S
C1812      C1813   1.389       .  A
C1813      C1814   1.370       .  A
C1813      H1816   1.086       .  S
C1814      C1817   1.444       .  S
C1817      N1819   1.157       .  T
C1818      N1820   1.157       .  T
C1821      C1822   1.376       .  A
C1821      C1826   1.408       .  A
C1822      C1823   1.369       .  A
C1822      H1827   1.080       .  S
C1823      C1824   1.430       .  A
C1823      C1830   1.445       .  S
C1824      C1825   1.407       .  A
C1825      C1826   1.405       .  A
C1825      H1828   1.082       .  S
C1826      C1829   1.441       .  S
C1829      N1831   1.157       .  T
C1830      N1832   1.156       .  T
C1833      C1834   1.404       .  A
C1833      C1838   1.418       .  A
C1834      C1835   1.409       .  A
C1834      H1839   1.079       .  S
C1835      C1836   1.421       .  A
C1835      C1842   1.441       .  S
C1836      C1837   1.411       .  A
C1837      C1838   1.421       .  A
C1837      H1840   1.084       .  S
C1838      C1841   1.441       .  S
C1841      N1843   1.157       .  T
C1842      N1844   1.156       .  T
C1845      C1846   1.412       .  A
C1845      C1850   1.422       .  A
C1846      C1847   1.390       .  A
C1846      H1851   1.081       .  S
C1847      C1848   1.404       .  A
C1847      C1854   1.445       .  S
C1848      C1849   1.405       .  A
C1849      C1850   1.413       .  A
C1849      H1852   1.085       .  S
C1850      C1853   1.440       .  S
C1853      N1855   1.158       .  T
C1854      N1856   1.158       .  T
C1857      C1858   1.398       .  A
C1857      C1862   1.414       .  A
C1858      C1859   1.406       .  A
C1858      H1863   1.083       .  S
C1859      C1860   1.424       .  A
C1859      C1866   1.440       .  S
C1860      C1861   1.405       .  A
C1861      C1862   1.396       .  A
C1861      H1864   1.068       .  S
C1862      C1865   1.446       .  S
C1865      N1867   1.157       .  T
C1866      N1868   1.157       .  T
C1869      C1870   1.403       .  A
C1869      C1874   1.411       .  A
C1870      C1871   1.394       .  A
C1870      H1875   1.085       .  S
C1871      C1872   1.409       .  A
C1871      C1878   1.444       .  S
C1872      C1873   1.399       .  A
C1873      C1874   1.395       .  A
C1873      H1876   1.084       .  S
C1874      C1877   1.444       .  S
C1877      N1879   1.157       .  T
C1878      N1880   1.157       .  T
C1881      C1882   1.402       .  A
C1881      C1886   1.413       .  A
C1882      C1883   1.398       .  A
C1882      H1887   1.084       .  S
C1883      C1884   1.406       .  A
C1883      C1890   1.440       .  S
C1884      C1885   1.399       .  A
C1885      C1886   1.398       .  A
C1885      H1888   1.084       .  S
C1886      C1889   1.444       .  S
C1889      N1891   1.157       .  T
C1890      N1892   1.157       .  T
C1893      C1894   1.406       .  A
C1893      C1898   1.412       .  A
C1894      C1895   1.384       .  A
C1894      H1899   1.084       .  S
C1895      C1896   1.397       .  A
C1895      C1902   1.445       .  S
C1896      C1897   1.401       .  A
C1897      C1898   1.398       .  A
C1897      H1900   1.085       .  S
C1898      C1901   1.441       .  S
C1901      N1903   1.157       .  T
C1902      N1904   1.157       .  T
C1905      C1906   1.409       .  A
C1905      C1910   1.419       .  A
C1906      C1907   1.397       .  A
C1906      H1911   1.073       .  S
C1907      C1908   1.406       .  A
C1907      C1914   1.445   1_565  S
C1908      C1909   1.395       .  A
C1909      C1910   1.386       .  A
C1909      H1912   1.082       .  S
C1910      C1913   1.446       .  S
C1913      N1915   1.158       .  T
C1914      N1916   1.157       .  T
C1917      C1918   1.399       .  A
C1917      C1922   1.414       .  A
C1918      C1919   1.382       .  A
C1918      H1923   1.086       .  S
C1919      C1920   1.404       .  A
C1919      C1926   1.444       .  S
C1920      C1921   1.394       .  A
C1921      C1922   1.390       .  A
C1921      H1924   1.085       .  S
C1922      C1925   1.445       .  S
C1925      N1927   1.157       .  T
C1926      N1928   1.157       .  T
C1929      C1930   1.402       .  A
C1929      C1934   1.407       .  A
C1930      C1931   1.399       .  A
C1930      H1935   1.082       .  S
C1931      C1932   1.410       .  A
C1931      C1938   1.443       .  S
C1932      C1933   1.400       .  A
C1933      C1934   1.385       .  A
C1933      H1936   1.075       .  S
C1934      C1937   1.447       .  S
C1937      N1939   1.158       .  T
C1938      N1940   1.157       .  T
C1941      C1942   1.401       .  A
C1941      C1946   1.415       .  A
C1942      C1943   1.382       .  A
C1942      H1947   1.085       .  S
C1943      C1944   1.405       .  A
C1943      C1950   1.445       .  S
C1944      C1945   1.394       .  A
C1945      C1946   1.386       .  A
C1945      H1948   1.086       .  S
C1946      C1949   1.446       .  S
C1949      N1951   1.157       .  T
C1950      N1952   1.157       .  T
C1953      C1954   1.396       .  A
C1953      C1958   1.408       .  A
C1954      C1955   1.389       .  A
C1954      H1959   1.084       .  S
C1955      C1956   1.410       .  A
C1955      C1962   1.445       .  S
C1956      C1957   1.401       .  A
C1957      C1958   1.399       .  A
C1957      H1960   1.085       .  S
C1958      C1961   1.443       .  S
C1961      N1963   1.157       .  T
C1962      N1964   1.157       .  T
C1965      C1966   1.412       .  A
C1965      C1970   1.423       .  A
C1966      C1967   1.411       .  A
C1966      H1971   1.084       .  S
C1967      C1968   1.416       .  A
C1967      C1974   1.442       .  S
C1968      C1969   1.409       .  A
C1969      C1970   1.418       .  A
C1969      H1972   1.085       .  S
C1970      C1973   1.441       .  S
C1973      N1975   1.157       .  T
C1974      N1976   1.157       .  T
C1977      C1978   1.405       .  A
C1977      C1982   1.407       .  A
C1978      C1979   1.392       .  A
C1978      H1983   1.085       .  S
C1979      C1980   1.403       .  A
C1979      C1986   1.443       .  S
C1980      C1981   1.399       .  A
C1981      C1982   1.379       .  A
C1981      H1984   1.083       .  S
C1982      C1985   1.445       .  S
C1985      N1987   1.157       .  T
C1986      N1988   1.157       .  T
C1989      C1990   1.407       .  A
C1989      C1994   1.419       .  A
C1990      C1991   1.396       .  A
C1990      H1995   1.084       .  S
C1991      C1992   1.398       .  A
C1991      C1998   1.439       .  S
C1992      C1993   1.396       .  A
C1993      C1994   1.393       .  A
C1993      H1996   1.084       .  S
C1994      C1997   1.443       .  S
C1997      N1999   1.156       .  T
C1998      N2000   1.156       .  T
C2001      C2002   1.404       .  A
C2001      C2006   1.410       .  A
C2002      C2003   1.406       .  A
C2002      H2007   1.084       .  S
C2003      C2004   1.413       .  A
C2003      C2010   1.441       .  S
C2004      C2005   1.403       .  A
C2005      C2006   1.396       .  A
C2005      H2008   1.084       .  S
C2006      C2009   1.441       .  S
C2009      N2011   1.157       .  T
C2010      N2012   1.157       .  T
C2013      C2014   1.401       .  A
C2013      C2018   1.413       .  A
C2014      C2015   1.381       .  A
C2014      H2019   1.079       .  S
C2015      C2016   1.403       .  A
C2015      C2022   1.447       .  S
C2016      C2017   1.404       .  A
C2017      C2018   1.405       .  A
C2017      H2020   1.084       .  S
C2018      C2021   1.442       .  S
C2021      N2023   1.157       .  T
C2022      N2024   1.157       .  T
C2025      C2026   1.423       .  A
C2025      C2030   1.413       .  A
C2026      C2027   1.418       .  A
C2026      H2031   1.084       .  S
C2027      C2028   1.409       .  A
C2027      C2034   1.443       .  S
C2028      C2029   1.419       .  A
C2029      C2030   1.420       .  A
C2029      H2032   1.083       .  S
C2030      C2033   1.442       .  S
C2033      N2035   1.157       .  T
C2034      N2036   1.157       .  T
C2037      C2038   1.399       .  A
C2037      C2042   1.410       .  A
C2038      C2039   1.396       .  A
C2038      H2043   1.085       .  S
C2039      C2040   1.409       .  A
C2039      C2046   1.444       .  S
C2040      C2041   1.399       .  A
C2041      C2042   1.396       .  A
C2041      H2044   1.085       .  S
C2042      C2045   1.442       .  S
C2045      N2047   1.157       .  T
C2046      N2048   1.157       .  T
C2049      C2050   1.401       .  A
C2049      C2054   1.415       .  A
C2050      C2051   1.389       .  A
C2050      H2055   1.085       .  S
C2051      C2052   1.409       .  A
C2051      C2058   1.444       .  S
C2052      C2053   1.398       .  A
C2053      C2054   1.398       .  A
C2053      H2056   1.085       .  S
C2054      C2057   1.444       .  S
C2057      N2059   1.157       .  T
C2058      N2060   1.157       .  T
C2061      C2062   1.401       .  A
C2061      C2066   1.407       .  A
C2062      C2063   1.399       .  A
C2062      H2067   1.084       .  S
C2063      C2064   1.415       .  A
C2063      C2070   1.445       .  S
C2064      C2065   1.402       .  A
C2065      C2066   1.393       .  A
C2065      H2068   1.085       .  S
C2066      C2069   1.443       .  S
C2069      N2071   1.157       .  T
C2070      N2072   1.158       .  T
C2073      C2074   1.395       .  A
C2073      C2078   1.404       .  A
C2074      C2075   1.393       .  A
C2074      H2079   1.084       .  S
C2075      C2076   1.411       .  A
C2075      C2082   1.439       .  S
C2076      C2077   1.407       .  A
C2077      C2078   1.398       .  A
C2077      H2080   1.083       .  S
C2078      C2081   1.442       .  S
C2081      N2083   1.157       .  T
C2082      N2084   1.156       .  T
C2085      C2086   1.412       .  A
C2085      C2090   1.417       .  A
C2086      C2087   1.424       .  A
C2086      H2091   1.084       .  S
C2087      C2088   1.425       .  A
C2087      C2094   1.443       .  S
C2088      C2089   1.412       .  A
C2089      C2090   1.415       .  A
C2089      H2092   1.084       .  S
C2090      C2093   1.443       .  S
C2093      N2095   1.157       .  T
C2094      N2096   1.157       .  T
C2097      C2098   1.399       .  A
C2097      C2102   1.400       .  A
C2098      C2099   1.390       .  A
C2098      H2103   1.085       .  S
C2099      C2100   1.410       .  A
C2099      C2106   1.445       .  S
C2100      C2101   1.408       .  A
C2101      C2102   1.392       .  A
C2101      H2104   1.085       .  S
C2102      C2105   1.443       .  S
C2105      N2107   1.157       .  T
C2106      N2108   1.157       .  T
C2109      C2110   1.402       .  A
C2109      C2114   1.411       .  A
C2110      C2111   1.400       .  A
C2110      H2115   1.085       .  S
C2111      C2112   1.411       .  A
C2111      C2118   1.444       .  S
C2112      C2113   1.401       .  A
C2113      C2114   1.400       .  A
C2113      H2116   1.085       .  S
C2114      C2117   1.444       .  S
C2117      N2119   1.157       .  T
C2118      N2120   1.157       .  T
C2121      C2122   1.399       .  A
C2121      C2126   1.403       .  A
C2122      C2123   1.399       .  A
C2122      H2127   1.084       .  S
C2123      C2124   1.412       .  A
C2123      C2130   1.442       .  S
C2124      C2125   1.409   1_565  A
C2125      C2126   1.405   1_545  A
C2125      H2128   1.081       .  S
C2126      C2129   1.441   1_565  S
C2129      N2131   1.157       .  T
C2130      N2132   1.157       .  T
C2133      C2134   1.396       .  A
C2133      C2138   1.402       .  A
C2134      C2135   1.385       .  A
C2134      H2139   1.085       .  S
C2135      C2136   1.408       .  A
C2135      C2142   1.445       .  S
C2136      C2137   1.397       .  A
C2137      C2138   1.378       .  A
C2137      H2140   1.086       .  S
C2138      C2141   1.444       .  S
C2141      N2143   1.157       .  T
C2142      N2144   1.157       .  T
C2145      C2146   1.396       .  A
C2145      C2150   1.405       .  A
C2146      C2147   1.387       .  A
C2146      H2151   1.086       .  S
C2147      C2148   1.407       .  A
C2147      C2154   1.441       .  S
C2148      C2149   1.400       .  A
C2149      C2150   1.386       .  A
C2149      H2152   1.086       .  S
C2150      C2153   1.442       .  S
C2153      N2155   1.157       .  T
C2154      N2156   1.156       .  T
C2157      C2158   1.404       .  A
C2157      C2162   1.409       .  A
C2158      C2159   1.388       .  A
C2158      H2163   1.085       .  S
C2159      C2160   1.400       .  A
C2159      C2166   1.444       .  S
C2160      C2161   1.397       .  A
C2161      C2162   1.384       .  A
C2161      H2164   1.085       .  S
C2162      C2165   1.444       .  S
C2165      N2167   1.157       .  T
C2166      N2168   1.157       .  T
C2169      C2170   1.392       .  A
C2169      C2174   1.400       .  A
C2170      C2171   1.388       .  A
C2170      H2175   1.085       .  S
C2171      C2172   1.417       .  A
C2171      C2178   1.444       .  S
C2172      C2173   1.405       .  A
C2173      C2174   1.381       .  A
C2173      H2176   1.085       .  S
C2174      C2177   1.447       .  S
C2177      N2179   1.157       .  T
C2178      N2180   1.157       .  T
C2181      C2182   1.386       .  A
C2181      C2186   1.400       .  A
C2182      C2183   1.386   1_655  A
C2182      H2187   1.087   1_655  S
C2183      C2184   1.423       .  A
C2183      C2190   1.436       .  S
C2184      C2185   1.411   1_455  A
C2185      C2186   1.393       .  A
C2185      H2188   1.080       .  S
C2186      C2189   1.445       .  S
C2189      N2191   1.157       .  T
C2190      N2192   1.154       .  T
C2193      C2194   1.393       .  A
C2193      C2198   1.406       .  A
C2194      C2195   1.385       .  A
C2194      H2199   1.082       .  S
C2195      C2196   1.412       .  A
C2195      C2202   1.443       .  S
C2196      C2197   1.404       .  A
C2197      C2198   1.392       .  A
C2197      H2200   1.085       .  S
C2198      C2201   1.445       .  S
C2201      N2203   1.157       .  T
C2202      N2204   1.157       .  T
C2205      C2206   1.402       .  A
C2205      C2210   1.411       .  A
C2206      C2207   1.393       .  A
C2206      H2211   1.085       .  S
C2207      C2208   1.406   1_655  A
C2207      C2214   1.444       .  S
C2208      C2209   1.396   1_455  A
C2209      C2210   1.382       .  A
C2209      H2212   1.083   1_655  S
C2210      C2213   1.447       .  S
C2213      N2215   1.157       .  T
C2214      N2216   1.157       .  T
C2217      C2218   1.406       .  A
C2217      C2222   1.418       .  A
C2218      C2219   1.383       .  A
C2218      H2223   1.085       .  S
C2219      C2220   1.402       .  A
C2219      C2226   1.445       .  S
C2220      C2221   1.396       .  A
C2221      C2222   1.398       .  A
C2221      H2224   1.085       .  S
C2222      C2225   1.443       .  S
C2225      N2227   1.157       .  T
C2226      N2228   1.157       .  T
C2229      C2230   1.421       .  A
C2229      C2234   1.417       .  A
C2230      C2231   1.428       .  A
C2230      H2235   1.084       .  S
C2231      C2232   1.416       .  A
C2231      C2238   1.440       .  S
C2232      C2233   1.419       .  A
C2233      C2234   1.427       .  A
C2233      H2236   1.083       .  S
C2234      C2237   1.441       .  S
C2237      N2239   1.157       .  T
C2238      N2240   1.157       .  T
C2241      C2242   1.400       .  A
C2241      C2246   1.412       .  A
C2242      C2243   1.402       .  A
C2242      H2247   1.084       .  S
C2243      C2244   1.413       .  A
C2243      C2250   1.443       .  S
C2244      C2245   1.392       .  A
C2245      C2246   1.383       .  A
C2245      H2248   1.085       .  S
C2246      C2249   1.448       .  S
C2249      N2251   1.157       .  T
C2250      N2252   1.157       .  T
C2253      C2254   1.403       .  A
C2253      C2258   1.410       .  A
C2254      C2255   1.402       .  A
C2254      H2259   1.085       .  S
C2255      C2256   1.409       .  A
C2255      C2262   1.443       .  S
C2256      C2257   1.401       .  A
C2257      C2258   1.398       .  A
C2257      H2260   1.084       .  S
C2258      C2261   1.445       .  S
C2261      N2263   1.157       .  T
C2262      N2264   1.157       .  T
C2265      C2266   1.402       .  A
C2265      C2270   1.403       .  A
C2266      C2267   1.391       .  A
C2266      H2271   1.086       .  S
C2267      C2268   1.404       .  A
C2267      C2274   1.444       .  S
C2268      C2269   1.400       .  A
C2269      C2270   1.389       .  A
C2269      H2272   1.084       .  S
C2270      C2273   1.443       .  S
C2273      N2275   1.157       .  T
C2274      N2276   1.157       .  T
C2277      C2278   1.405       .  A
C2277      C2282   1.415       .  A
C2278      C2279   1.399       .  A
C2278      H2283   1.084       .  S
C2279      C2280   1.406       .  A
C2279      C2286   1.440       .  S
C2280      C2281   1.400       .  A
C2281      C2282   1.404       .  A
C2281      H2284   1.084       .  S
C2282      C2285   1.439       .  S
C2285      N2287   1.156       .  T
C2286      N2288   1.157       .  T
C2289      C2290   1.412       .  A
C2289      C2294   1.416       .  A
C2290      C2291   1.395       .  A
C2290      H2295   1.080       .  S
C2291      C2292   1.403       .  A
C2291      C2298   1.444       .  S
C2292      C2293   1.401       .  A
C2293      C2294   1.405       .  A
C2293      H2296   1.084       .  S
C2294      C2297   1.439       .  S
C2297      N2299   1.156       .  T
C2298      N2300   1.157       .  T
C2301      C2302   1.397       .  A
C2301      C2306   1.401       .  A
C2302      C2303   1.395       .  A
C2302      H2307   1.084       .  S
C2303      C2304   1.409       .  A
C2303      C2310   1.443       .  S
C2304      C2305   1.403       .  A
C2305      C2306   1.391       .  A
C2305      H2308   1.077       .  S
C2306      C2309   1.443       .  S
C2309      N2311   1.157       .  T
C2310      N2312   1.157       .  T
C2313      C2314   1.405       .  A
C2313      C2318   1.418   1_565  A
C2314      C2315   1.401   1_565  A
C2314      H2319   1.083       .  S
C2315      C2316   1.407       .  A
C2315      C2322   1.441       .  S
C2316      C2317   1.398       .  A
C2317      C2318   1.399       .  A
C2317      H2320   1.084       .  S
C2318      C2321   1.444   1_545  S
C2321      N2323   1.157       .  T
C2322      N2324   1.157       .  T
C2325      C2326   1.411       .  A
C2325      C2330   1.403       .  A
C2326      C2327   1.411       .  A
C2326      H2331   1.078       .  S
C2327      C2328   1.421       .  A
C2327      C2334   1.439       .  S
C2328      C2329   1.411       .  A
C2329      C2330   1.384       .  A
C2329      H2332   1.086       .  S
C2330      C2333   1.445       .  S
C2333      N2335   1.157       .  T
C2334      N2336   1.158       .  T
C2337      C2338   1.401       .  A
C2337      C2342   1.410       .  A
C2338      C2339   1.391       .  A
C2338      H2343   1.085       .  S
C2339      C2340   1.408       .  A
C2339      C2346   1.442       .  S
C2340      C2341   1.403       .  A
C2341      C2342   1.402       .  A
C2341      H2344   1.085       .  S
C2342      C2345   1.442       .  S
C2345      N2347   1.157       .  T
C2346      N2348   1.157       .  T
C2349      C2350   1.406   1_565  A
C2349      C2354   1.410       .  A
C2350      C2351   1.394       .  A
C2350      H2355   1.084       .  S
C2351      C2352   1.406       .  A
C2351      C2358   1.440       .  S
C2352      C2353   1.408   1_545  A
C2353      C2354   1.409       .  A
C2353      H2356   1.084       .  S
C2354      C2357   1.441       .  S
C2357      N2359   1.157       .  T
C2358      N2360   1.157       .  T
C2361      C2362   1.415       .  A
C2361      C2366   1.416       .  A
C2362      C2363   1.410       .  A
C2362      H2367   1.084   1_565  S
C2363      C2364   1.408       .  A
C2363      C2370   1.442       .  S
C2364      C2365   1.403       .  A
C2365      C2366   1.403       .  A
C2365      H2368   1.077   1_556  S
C2366      C2369   1.444       .  S
C2369      N2371   1.158   1_556  T
C2370      N2372   1.157       .  T
C2373      C2374   1.402       .  A
C2373      C2378   1.407       .  A
C2374      C2375   1.392       .  A
C2374      H2379   1.083       .  S
C2375      C2376   1.405       .  A
C2375      C2382   1.443       .  S
C2376      C2377   1.405       .  A
C2377      C2378   1.404       .  A
C2377      H2380   1.084       .  S
C2378      C2381   1.443       .  S
C2381      N2383   1.157   1_556  T
C2382      N2384   1.157       .  T
C2385      C2386   1.403       .  A
C2385      C2390   1.418       .  A
C2386      C2387   1.399       .  A
C2386      H2391   1.084       .  S
C2387      C2388   1.408       .  A
C2387      C2394   1.440       .  S
C2388      C2389   1.396       .  A
C2389      C2390   1.402       .  A
C2389      H2392   1.085       .  S
C2390      C2393   1.438       .  S
C2393      N2395   1.157       .  T
C2394      N2396   1.157       .  T
C2397      C2398   1.411       .  A
C2397      C2402   1.417       .  A
C2398      C2399   1.400       .  A
C2398      H2403   1.078       .  S
C2399      C2400   1.403       .  A
C2399      C2406   1.444       .  S
C2400      C2401   1.402       .  A
C2401      C2402   1.398       .  A
C2401      H2404   1.083       .  S
C2402      C2405   1.444       .  S
C2405      N2407   1.157       .  T
C2406      N2408   1.157       .  T
C2409      C2410   1.402       .  A
C2409      C2414   1.411       .  A
C2410      C2411   1.396       .  A
C2410      H2415   1.084       .  S
C2411      C2412   1.407       .  A
C2411      C2418   1.442       .  S
C2412      C2413   1.399       .  A
C2413      C2414   1.394       .  A
C2413      H2416   1.085       .  S
C2414      C2417   1.443       .  S
C2417      N2419   1.157       .  T
C2418      N2420   1.157       .  T
C2421      C2422   1.402       .  A
C2421      C2426   1.411       .  A
C2422      C2423   1.394       .  A
C2422      H2427   1.083       .  S
C2423      C2424   1.418       .  A
C2423      C2430   1.446       .  S
C2424      C2425   1.416       .  A
C2425      C2426   1.418       .  A
C2425      H2428   1.084       .  S
C2426      C2429   1.441       .  S
C2429      N2431   1.157       .  T
C2430      N2432   1.157       .  T
C2433      C2434   1.403       .  A
C2433      C2438   1.412       .  A
C2434      C2435   1.402       .  A
C2434      H2439   1.083       .  S
C2435      C2436   1.421       .  A
C2435      C2442   1.444       .  S
C2436      C2437   1.416       .  A
C2437      C2438   1.419       .  A
C2437      H2440   1.084       .  S
C2438      C2441   1.441       .  S
C2441      N2443   1.157       .  T
C2442      N2444   1.157       .  T
C2445      C2446   1.402       .  A
C2445      C2450   1.399       .  A
C2446      C2447   1.403       .  A
C2446      H2451   1.084       .  S
C2447      C2448   1.409       .  A
C2447      C2454   1.441       .  S
C2448      C2449   1.397       .  A
C2449      C2450   1.381       .  A
C2449      H2452   1.084       .  S
C2450      C2453   1.446       .  S
C2453      N2455   1.158       .  T
C2454      N2456   1.157       .  T
C2457      C2458   1.401       .  A
C2457      C2462   1.420       .  A
C2458      C2459   1.382       .  A
C2458      H2463   1.083       .  S
C2459      C2460   1.401       .  A
C2459      C2466   1.440       .  S
C2460      C2461   1.399       .  A
C2461      C2462   1.401       .  A
C2461      H2464   1.085       .  S
C2462      C2465   1.436       .  S
C2465      N2467   1.156       .  T
C2466      N2468   1.157       .  T
C2469      C2470   1.417       .  A
C2469      C2474   1.416       .  A
C2470      C2471   1.425       .  A
C2470      H2475   1.084       .  S
C2471      C2472   1.418       .  A
C2471      C2478   1.442       .  S
C2472      C2473   1.411       .  A
C2473      C2474   1.418       .  A
C2473      H2476   1.085       .  S
C2474      C2477   1.439       .  S
C2477      N2479   1.156       .  T
C2478      N2480   1.157       .  T
C2481      C2482   1.406       .  A
C2481      C2486   1.432       .  A
C2482      C2483   1.419       .  A
C2482      H2487   1.085       .  S
C2483      C2484   1.433       .  A
C2483      C2490   1.445       .  S
C2484      C2485   1.405       .  A
C2485      C2486   1.421       .  A
C2485      H2488   1.084       .  S
C2486      C2489   1.441       .  S
C2489      N2491   1.157       .  T
C2490      N2492   1.158       .  T
C2493      C2494   1.381       .  A
C2493      C2498   1.417       .  A
C2494      C2495   1.375       .  A
C2494      H2499   1.070       .  S
C2495      C2496   1.420       .  A
C2495      C2502   1.431       .  S
C2496      C2497   1.411       .  A
C2497      C2498   1.420       .  A
C2497      H2500   1.080       .  S
C2498      C2501   1.441       .  S
C2501      N2503   1.157       .  T
C2502      N2504   1.150       .  T
C2505      C2506   1.407       .  A
C2505      C2510   1.428       .  A
C2506      C2507   1.396       .  A
C2506      H2511   1.069       .  S
C2507      C2508   1.399       .  A
C2507      C2514   1.440       .  S
C2508      C2509   1.399       .  A
C2509      C2510   1.401       .  A
C2509      H2512   1.085       .  S
C2510      C2513   1.434       .  S
C2513      N2515   1.158       .  T
C2514      N2516   1.157       .  T
C2517      C2518   1.414       .  A
C2517      C2522   1.413       .  A
C2518      C2519   1.424       .  A
C2518      H2523   1.084       .  S
C2519      C2520   1.416       .  A
C2519      C2526   1.441       .  S
C2520      C2521   1.414       .  A
C2521      C2522   1.411       .  A
C2521      H2524   1.085       .  S
C2522      C2525   1.444       .  S
C2525      N2527   1.157       .  T
C2526      N2528   1.157       .  T
C2529      C2530   1.413       .  A
C2529      C2534   1.423       .  A
C2530      C2531   1.421       .  A
C2530      H2535   1.084       .  S
C2531      C2532   1.418       .  A
C2531      C2538   1.441       .  S
C2532      C2533   1.406       .  A
C2533      C2534   1.407       .  A
C2533      H2536   1.072       .  S
C2534      C2537   1.445       .  S
C2537      N2539   1.158       .  T
C2538      N2540   1.157       .  T
C2541      C2542   1.390       .  A
C2541      C2546   1.405       .  A
C2542      C2543   1.392       .  A
C2542      H2547   1.085       .  S
C2543      C2544   1.418       .  A
C2543      C2550   1.436       .  S
C2544      C2545   1.402       .  A
C2545      C2546   1.387       .  A
C2545      H2548   1.083       .  S
C2546      C2549   1.442       .  S
C2549      N2551   1.157       .  T
C2550      N2552   1.156       .  T
C2553      C2554   1.399       .  A
C2553      C2558   1.430       .  A
C2554      C2555   1.391       .  A
C2554      H2559   1.079       .  S
C2555      C2556   1.416       .  A
C2555      C2562   1.446       .  S
C2556      C2557   1.391       .  A
C2557      C2558   1.397       .  A
C2557      H2560   1.085       .  S
C2558      C2561   1.446       .  S
C2561      N2563   1.157       .  T
C2562      N2564   1.158       .  T
C2565      C2566   1.403       .  A
C2565      C2570   1.413       .  A
C2566      C2567   1.412       .  A
C2566      H2571   1.084       .  S
C2567      C2568   1.426       .  A
C2567      C2574   1.443       .  S
C2568      C2569   1.407       .  A
C2569      C2570   1.404       .  A
C2569      H2572   1.081       .  S
C2570      C2573   1.445       .  S
C2573      N2575   1.157       .  T
C2574      N2576   1.157       .  T
C2577      C2578   1.412       .  A
C2577      C2582   1.424       .  A
C2578      C2579   1.425       .  A
C2578      H2583   1.084       .  S
C2579      C2580   1.431       .  A
C2579      C2586   1.443       .  S
C2580      C2581   1.420       .  A
C2581      C2582   1.434       .  A
C2581      H2584   1.084       .  S
C2582      C2585   1.441       .  S
C2585      N2587   1.157       .  T
C2586      N2588   1.157       .  T
C2589      C2590   1.398       .  A
C2589      C2594   1.405       .  A
C2590      C2591   1.404       .  A
C2590      H2595   1.084       .  S
C2591      C2592   1.425       .  A
C2591      C2598   1.444       .  S
C2592      C2593   1.409       .  A
C2593      C2594   1.394       .  A
C2593      H2596   1.074       .  S
C2594      C2597   1.443       .  S
C2597      N2599   1.157       .  T
C2598      N2600   1.157       .  T
C2601      C2602   1.410       .  A
C2601      C2606   1.414       .  A
C2602      C2603   1.397       .  A
C2602      H2607   1.076       .  S
C2603      C2604   1.409       .  A
C2603      C2610   1.447       .  S
C2604      C2605   1.419       .  A
C2605      C2606   1.418       .  A
C2605      H2608   1.081       .  S
C2606      C2609   1.441       .  S
C2609      N2611   1.157       .  T
C2610      N2612   1.158       .  T
C2613      C2614   1.397       .  A
C2613      C2618   1.408       .  A
C2614      C2615   1.395       .  A
C2614      H2619   1.082       .  S
C2615      C2616   1.417       .  A
C2615      C2622   1.442       .  S
C2616      C2617   1.408       .  A
C2617      C2618   1.408       .  A
C2617      H2620   1.084       .  S
C2618      C2621   1.441       .  S
C2621      N2623   1.157       .  T
C2622      N2624   1.157       .  T
C2625      C2626   1.411       .  A
C2625      C2630   1.420       .  A
C2626      C2627   1.402       .  A
C2626      H2631   1.077       .  S
C2627      C2628   1.404       .  A
C2627      C2634   1.444       .  S
C2628      C2629   1.403       .  A
C2629      C2630   1.404       .  A
C2629      H2632   1.079       .  S
C2630      C2633   1.443       .  S
C2633      N2635   1.158       .  T
C2634      N2636   1.157       .  T
C2637      C2638   1.411       .  A
C2637      C2642   1.420       .  A
C2638      C2639   1.399       .  A
C2638      H2643   1.082       .  S
C2639      C2640   1.403       .  A
C2639      C2646   1.444       .  S
C2640      C2641   1.396       .  A
C2641      C2642   1.396       .  A
C2641      H2644   1.084       .  S
C2642      C2645   1.443       .  S
C2645      N2647   1.158       .  T
C2646      N2648   1.157       .  T
C2649      C2650   1.405       .  A
C2649      C2654   1.403   1_554  A
C2650      C2651   1.396       .  A
C2650      H2655   1.082       .  S
C2651      C2652   1.412       .  A
C2651      C2658   1.444       .  S
C2652      C2653   1.412       .  A
C2653      C2654   1.394   1_554  A
C2653      H2656   1.079   1_554  S
C2654      C2657   1.442       .  S
C2657      N2659   1.157       .  T
C2658      N2660   1.158       .  T
C2661      C2662   1.400       .  A
C2661      C2666   1.407       .  A
C2662      C2663   1.397       .  A
C2662      H2667   1.084       .  S
C2663      C2664   1.412       .  A
C2663      C2670   1.443       .  S
C2664      C2665   1.402       .  A
C2665      C2666   1.396       .  A
C2665      H2668   1.084       .  S
C2666      C2669   1.444       .  S
C2669      N2671   1.157       .  T
C2670      N2672   1.157       .  T
C2673      C2674   1.407       .  A
C2673      C2678   1.419       .  A
C2674      C2675   1.400       .  A
C2674      H2679   1.067       .  S
C2675      C2676   1.412   1_655  A
C2675      C2682   1.443       .  S
C2676      C2677   1.413       .  A
C2677      C2678   1.411   1_455  A
C2677      H2680   1.080       .  S
C2678      C2681   1.443   1_655  S
C2681      N2683   1.158   1_554  T
C2682      N2684   1.157       .  T
C2685      C2686   1.398       .  A
C2685      C2690   1.403       .  A
C2686      C2687   1.403       .  A
C2686      H2691   1.083       .  S
C2687      C2688   1.422       .  A
C2687      C2694   1.441       .  S
C2688      C2689   1.411       .  A
C2689      C2690   1.401       .  A
C2689      H2692   1.082       .  S
C2690      C2693   1.442       .  S
C2693      N2695   1.157       .  T
C2694      N2696   1.157       .  T
C2697      C2698   1.405   1_455  A
C2697      C2702   1.407       .  A
C2698      C2699   1.387       .  A
C2698      H2703   1.083       .  S
C2699      C2700   1.399       .  A
C2699      C2706   1.443       .  S
C2700      C2701   1.399       .  A
C2701      C2702   1.395   1_655  A
C2701      H2704   1.084       .  S
C2702      C2705   1.443       .  S
C2705      N2707   1.157       .  T
C2706      N2708   1.157       .  T
C2709      C2710   1.410       .  A
C2709      C2714   1.422       .  A
C2710      C2711   1.399       .  A
C2710      H2715   1.080       .  S
C2711      C2712   1.409       .  A
C2711      C2718   1.442   1_655  S
C2712      C2713   1.398       .  A
C2713      C2714   1.401       .  A
C2713      H2716   1.085       .  S
C2714      C2717   1.444       .  S
C2717      N2719   1.157       .  T
C2718      N2720   1.157       .  T
C2721      C2722   1.411       .  A
C2721      C2726   1.426       .  A
C2722      C2723   1.401       .  A
C2722      H2727   1.084       .  S
C2723      C2724   1.409       .  A
C2723      C2730   1.441       .  S
C2724      C2725   1.398       .  A
C2725      C2726   1.404       .  A
C2725      H2728   1.085       .  S
C2726      C2729   1.439       .  S
C2729      N2731   1.157       .  T
C2730      N2732   1.157       .  T
C2733      C2734   1.409       .  A
C2733      C2738   1.422       .  A
C2734      C2735   1.398       .  A
C2734      H2739   1.071       .  S
C2735      C2736   1.404       .  A
C2735      C2742   1.444       .  S
C2736      C2737   1.396       .  A
C2737      C2738   1.396       .  A
C2737      H2740   1.085       .  S
C2738      C2741   1.444       .  S
C2741      N2743   1.158       .  T
C2742      N2744   1.157       .  T
C2745      C2746   1.393       .  A
C2745      C2750   1.403       .  A
C2746      C2747   1.388       .  A
C2746      H2751   1.085       .  S
C2747      C2748   1.420       .  A
C2747      C2754   1.443       .  S
C2748      C2749   1.406       .  A
C2749      C2750   1.395       .  A
C2749      H2752   1.083       .  S
C2750      C2753   1.443       .  S
C2753      N2755   1.157       .  T
C2754      N2756   1.157       .  T
C2757      C2758   1.425       .  A
C2757      C2762   1.417       .  A
C2758      C2759   1.431       .  A
C2758      H2763   1.079       .  S
C2759      C2760   1.416       .  A
C2759      C2766   1.442       .  S
C2760      C2761   1.424       .  A
C2761      C2762   1.429       .  A
C2761      H2764   1.084       .  S
C2762      C2765   1.441       .  S
C2765      N2767   1.157       .  T
C2766      N2768   1.157       .  T
C2769      C2770   1.408       .  A
C2769      C2774   1.418       .  A
C2770      C2771   1.416       .  A
C2770      H2775   1.084       .  S
C2771      C2772   1.426       .  A
C2771      C2778   1.444       .  S
C2772      C2773   1.411       .  A
C2773      C2774   1.418       .  A
C2773      H2776   1.084       .  S
C2774      C2777   1.442       .  S
C2777      N2779   1.157       .  T
C2778      N2780   1.157       .  T
C2781      C2782   1.412       .  A
C2781      C2786   1.417       .  A
C2782      C2783   1.391       .  A
C2782      H2787   1.069       .  S
C2783      C2784   1.400       .  A
C2783      C2790   1.444       .  S
C2784      C2785   1.401       .  A
C2785      C2786   1.399       .  A
C2785      H2788   1.083       .  S
C2786      C2789   1.439       .  S
C2789      N2791   1.157       .  T
C2790      N2792   1.157       .  T
C2793      C2794   1.387       .  A
C2793      C2798   1.403       .  A
C2794      C2795   1.381       .  A
C2794      H2799   1.078       .  S
C2795      C2796   1.423       .  A
C2795      C2802   1.439   1_556  S
C2796      C2797   1.416       .  A
C2797      C2798   1.404       .  A
C2797      H2800   1.081       .  S
C2798      C2801   1.442       .  S
C2801      N2803   1.157       .  T
C2802      N2804   1.156       .  T
C2805      C2806   1.406       .  A
C2805      C2810   1.414       .  A
C2806      C2807   1.416       .  A
C2806      H2811   1.084       .  S
C2807      C2808   1.423       .  A
C2807      C2814   1.442       .  S
C2808      C2809   1.410       .  A
C2809      C2810   1.407       .  A
C2809      H2812   1.084       .  S
C2810      C2813   1.442       .  S
C2813      N2815   1.157       .  T
C2814      N2816   1.157       .  T
C2817      C2818   1.410       .  A
C2817      C2822   1.425       .  A
C2818      C2819   1.427       .  A
C2818      H2823   1.084       .  S
C2819      C2820   1.430       .  A
C2819      C2826   1.443       .  S
C2820      C2821   1.413       .  A
C2821      C2822   1.430       .  A
C2821      H2824   1.084       .  S
C2822      C2825   1.442       .  S
C2825      N2827   1.157       .  T
C2826      N2828   1.157       .  T
C2829      C2830   1.402       .  A
C2829      C2834   1.410       .  A
C2830      C2831   1.410       .  A
C2830      H2835   1.085       .  S
C2831      C2832   1.425       .  A
C2831      C2838   1.443       .  S
C2832      C2833   1.410       .  A
C2833      C2834   1.399       .  A
C2833      H2836   1.077       .  S
C2834      C2837   1.442       .  S
C2837      N2839   1.157       .  T
C2838      N2840   1.157       .  T
C2841      C2842   1.401       .  A
C2841      C2846   1.410       .  A
C2842      C2843   1.392       .  A
C2842      H2847   1.082       .  S
C2843      C2844   1.420       .  A
C2843      C2850   1.448       .  S
C2844      C2845   1.413       .  A
C2845      C2846   1.409       .  A
C2845      H2848   1.081       .  S
C2846      C2849   1.442       .  S
C2849      N2851   1.157       .  T
C2850      N2852   1.158       .  T
C2853      C2854   1.408       .  A
C2853      C2858   1.413       .  A
C2854      C2855   1.407       .  A
C2854      H2859   1.084       .  S
C2855      C2856   1.418       .  A
C2855      C2862   1.445       .  S
C2856      C2857   1.411       .  A
C2857      C2858   1.419       .  A
C2857      H2860   1.084       .  S
C2858      C2861   1.440       .  S
C2861      N2863   1.157       .  T
C2862      N2864   1.157       .  T
C2865      C2866   1.408       .  A
C2865      C2870   1.420       .  A
C2866      C2867   1.411       .  A
C2866      H2871   1.085       .  S
C2867      C2868   1.417       .  A
C2867      C2874   1.444       .  S
C2868      C2869   1.409       .  A
C2869      C2870   1.418       .  A
C2869      H2872   1.084       .  S
C2870      C2873   1.442       .  S
C2873      N2875   1.157       .  T
C2874      N2876   1.157       .  T
C2877      C2878   1.399       .  A
C2877      C2882   1.413       .  A
C2878      C2879   1.384       .  A
C2878      H2883   1.082       .  S
C2879      C2880   1.404       .  A
C2879      C2886   1.440       .  S
C2880      C2881   1.407       .  A
C2881      C2882   1.406       .  A
C2881      H2884   1.084       .  S
C2882      C2885   1.440       .  S
C2885      N2887   1.157       .  T
C2886      N2888   1.157       .  T
C2889      C2890   1.394       .  A
C2889      C2894   1.417       .  A
C2890      C2891   1.382       .  A
C2890      H2895   1.080       .  S
C2891      C2892   1.405       .  A
C2891      C2898   1.437       .  S
C2892      C2893   1.410       .  A
C2893      C2894   1.410       .  A
C2893      H2896   1.084       .  S
C2894      C2897   1.438       .  S
C2897      N2899   1.156       .  T
C2898      N2900   1.157       .  T
C2901      C2902   1.404       .  A
C2901      C2906   1.414       .  A
C2902      C2903   1.402       .  A
C2902      H2907   1.084       .  S
C2903      C2904   1.412       .  A
C2903      C2910   1.444       .  S
C2904      C2905   1.410       .  A
C2905      C2906   1.416       .  A
C2905      H2908   1.084       .  S
C2906      C2909   1.441       .  S
C2909      N2911   1.157       .  T
C2910      N2912   1.157       .  T
C2913      C2914   1.406       .  A
C2913      C2918   1.422       .  A
C2914      C2915   1.417       .  A
C2914      H2919   1.084       .  S
C2915      C2916   1.423       .  A
C2915      C2922   1.443       .  S
C2916      C2917   1.410       .  A
C2917      C2918   1.422       .  A
C2917      H2920   1.084       .  S
C2918      C2921   1.442       .  S
C2921      N2923   1.157       .  T
C2922      N2924   1.157       .  T
C2925      C2926   1.419       .  A
C2925      C2930   1.406       .  A
C2926      C2927   1.413       .  A
C2926      H2931   1.082       .  S
C2927      C2928   1.408       .  A
C2927      C2934   1.442       .  S
C2928      C2929   1.409       .  A
C2929      C2930   1.392       .  A
C2929      H2932   1.079       .  S
C2930      C2933   1.448       .  S
C2933      N2935   1.158       .  T
C2934      N2936   1.157       .  T
C2937      C2938   1.400       .  A
C2937      C2942   1.405       .  A
C2938      C2939   1.400       .  A
C2938      H2943   1.084       .  S
C2939      C2940   1.414       .  A
C2939      C2946   1.440       .  S
C2940      C2941   1.401       .  A
C2941      C2942   1.390       .  A
C2941      H2944   1.084       .  S
C2942      C2945   1.442       .  S
C2945      N2947   1.157       .  T
C2946      N2948   1.156       .  T
C2949      C2950   1.398   1_556  A
C2949      C2954   1.397       .  A
C2950      C2951   1.401       .  A
C2950      H2955   1.084       .  S
C2951      C2952   1.418       .  A
C2951      C2958   1.440       .  S
C2952      C2953   1.407   1_554  A
C2953      C2954   1.395       .  A
C2953      H2956   1.083       .  S
C2954      C2957   1.437       .  S
C2957      N2959   1.156       .  T
C2958      N2960   1.157       .  T
C2961      C2962   1.396       .  A
C2961      C2966   1.401       .  A
C2962      C2963   1.395       .  A
C2962      H2967   1.082       .  S
C2963      C2964   1.419       .  A
C2963      C2970   1.443       .  S
C2964      C2965   1.411       .  A
C2965      C2966   1.393       .  A
C2965      H2968   1.081       .  S
C2966      C2969   1.445       .  S
C2969      N2971   1.157       .  T
C2970      N2972   1.158       .  T
C2973      C2974   1.408       .  A
C2973      C2978   1.428       .  A
C2974      C2975   1.397       .  A
C2974      H2979   1.073       .  S
C2975      C2976   1.408       .  A
C2975      C2982   1.442       .  S
C2976      C2977   1.402       .  A
C2977      C2978   1.401       .  A
C2977      H2980   1.078       .  S
C2978      C2981   1.446       .  S
C2981      N2983   1.158       .  T
C2982      N2984   1.157       .  T
C2985      C2986   1.401       .  A
C2985      C2990   1.407       .  A
C2986      C2987   1.404       .  A
C2986      H2991   1.082       .  S
C2987      C2988   1.412       .  A
C2987      C2994   1.441       .  S
C2988      C2989   1.405       .  A
C2989      C2990   1.399       .  A
C2989      H2992   1.083       .  S
C2990      C2993   1.442       .  S
C2993      N2995   1.157       .  T
C2994      N2996   1.157       .  T
C2997      C2998   1.402       .  A
C2997      C3002   1.413       .  A
C2998      C2999   1.391       .  A
C2998      H3003   1.084       .  S
C2999      C3000   1.406       .  A
C2999      C3006   1.444       .  S
C3000      C3001   1.396       .  A
C3001      C3002   1.395       .  A
C3001      H3004   1.085       .  S
C3002      C3005   1.443       .  S
C3005      N3007   1.157       .  T
C3006      N3008   1.157       .  T
C3009      C3010   1.414       .  A
C3009      C3014   1.420       .  A
C3010      C3011   1.398       .  A
C3010      H3015   1.080       .  S
C3011      C3012   1.405       .  A
C3011      C3018   1.444       .  S
C3012      C3013   1.400       .  A
C3013      C3014   1.402       .  A
C3013      H3016   1.085       .  S
C3014      C3017   1.443       .  S
C3017      N3019   1.157       .  T
C3018      N3020   1.157       .  T
C3021      C3022   1.402       .  A
C3021      C3026   1.412       .  A
C3022      C3023   1.410       .  A
C3022      H3027   1.085       .  S
C3023      C3024   1.429       .  A
C3023      C3030   1.439       .  S
C3024      C3025   1.418       .  A
C3025      C3026   1.415       .  A
C3025      H3028   1.082   1_554  S
C3026      C3029   1.441   1_554  S
C3029      N3031   1.157       .  T
C3030      N3032   1.157       .  T
C3033      C3034   1.396       .  A
C3033      C3038   1.395       .  A
C3034      C3035   1.391       .  A
C3034      H3039   1.085       .  S
C3035      C3036   1.419       .  A
C3035      C3042   1.442       .  S
C3036      C3037   1.419       .  A
C3037      C3038   1.393       .  A
C3037      H3040   1.081       .  S
C3038      C3041   1.444       .  S
C3041      N3043   1.157       .  T
C3042      N3044   1.157       .  T
C3045      C3046   1.402       .  A
C3045      C3050   1.398       .  A
C3046      C3047   1.393       .  A
C3046      H3051   1.084       .  S
C3047      C3048   1.404       .  A
C3047      C3054   1.441       .  S
C3048      C3049   1.406       .  A
C3049      C3050   1.386       .  A
C3049      H3052   1.084       .  S
C3050      C3053   1.444       .  S
C3053      N3055   1.157       .  T
C3054      N3056   1.157       .  T
C3057      C3058   1.400       .  A
C3057      C3062   1.413       .  A
C3058      C3059   1.404       .  A
C3058      H3063   1.082       .  S
C3059      C3060   1.426       .  A
C3059      C3066   1.445       .  S
C3060      C3061   1.411       .  A
C3061      C3062   1.413       .  A
C3061      H3064   1.084       .  S
C3062      C3065   1.442       .  S
C3065      N3067   1.157       .  T
C3066      N3068   1.158       .  T
C3069      C3070   1.402       .  A
C3069      C3074   1.411       .  A
C3070      C3071   1.402       .  A
C3070      H3075   1.082       .  S
C3071      C3072   1.422       .  A
C3071      C3078   1.444       .  S
C3072      C3073   1.414       .  A
C3073      C3074   1.415       .  A
C3073      H3076   1.084       .  S
C3074      C3077   1.441       .  S
C3077      N3079   1.157       .  T
C3078      N3080   1.157       .  T
C3081      C3082   1.403       .  A
C3081      C3086   1.410       .  A
C3082      C3083   1.406       .  A
C3082      H3087   1.085       .  S
C3083      C3084   1.423       .  A
C3083      C3090   1.440       .  S
C3084      C3085   1.413       .  A
C3085      C3086   1.394       .  A
C3085      H3088   1.079   1_556  S
C3086      C3089   1.444       .  S
C3089      N3091   1.158       .  T
C3090      N3092   1.157       .  T
C3093      C3094   1.406       .  A
C3093      C3098   1.403       .  A
C3094      C3095   1.380       .  A
C3094      H3099   1.084       .  S
C3095      C3096   1.398       .  A
C3095      C3102   1.444       .  S
C3096      C3097   1.403       .  A
C3097      C3098   1.397       .  A
C3097      H3100   1.084       .  S
C3098      C3101   1.441       .  S
C3101      N3103   1.157       .  T
C3102      N3104   1.157       .  T
C3105      C3106   1.409       .  A
C3105      C3110   1.414       .  A
C3106      C3107   1.422       .  A
C3106      H3111   1.084       .  S
C3107      C3108   1.427       .  A
C3107      C3114   1.442       .  S
C3108      C3109   1.412       .  A
C3109      C3110   1.409       .  A
C3109      H3112   1.084       .  S
C3110      C3113   1.443       .  S
C3113      N3115   1.157       .  T
C3114      N3116   1.157       .  T
C3117      C3118   1.409       .  A
C3117      C3122   1.417       .  A
C3118      C3119   1.414       .  A
C3118      H3123   1.085       .  S
C3119      C3120   1.423       .  A
C3119      C3126   1.443       .  S
C3120      C3121   1.414       .  A
C3121      C3122   1.419       .  A
C3121      H3124   1.084       .  S
C3122      C3125   1.440       .  S
C3125      N3127   1.157       .  T
C3126      N3128   1.158       .  T
C3129      C3130   1.408       .  A
C3129      C3134   1.403       .  A
C3130      C3131   1.385       .  A
C3130      H3135   1.075       .  S
C3131      C3132   1.393       .  A
C3131      C3138   1.443       .  S
C3132      C3133   1.408       .  A
C3133      C3134   1.402       .  A
C3133      H3136   1.083       .  S
C3134      C3137   1.441       .  S
C3137      N3139   1.157       .  T
C3138      N3140   1.157       .  T
C3141      C3142   1.415       .  A
C3141      C3146   1.435       .  A
C3142      C3143   1.407       .  A
C3142      H3147   1.084       .  S
C3143      C3144   1.406       .  A
C3143      C3150   1.442       .  S
C3144      C3145   1.386       .  A
C3145      C3146   1.392       .  A
C3145      H3148   1.084       .  S
C3146      C3149   1.435       .  S
C3149      N3151   1.157       .  T
C3150      N3152   1.157       .  T
C3153      C3154   1.409       .  A
C3153      C3158   1.415       .  A
C3154      C3155   1.408       .  A
C3154      H3159   1.082       .  S
C3155      C3156   1.408       .  A
C3155      C3162   1.441       .  S
C3156      C3157   1.399       .  A
C3157      C3158   1.401       .  A
C3157      H3160   1.084       .  S
C3158      C3161   1.439       .  S
C3161      N3163   1.156       .  T
C3162      N3164   1.157       .  T
C3165      C3166   1.410       .  A
C3165      C3170   1.424       .  A
C3166      C3167   1.397       .  A
C3166      H3171   1.080       .  S
C3167      C3168   1.404       .  A
C3167      C3174   1.442       .  S
C3168      C3169   1.394       .  A
C3169      C3170   1.394       .  A
C3169      H3172   1.086       .  S
C3170      C3173   1.445       .  S
C3173      N3175   1.157       .  T
C3174      N3176   1.157       .  T
C3177      C3178   1.400       .  A
C3177      C3182   1.404       .  A
C3178      C3179   1.381       .  A
C3178      H3183   1.083       .  S
C3179      C3180   1.399       .  A
C3179      C3186   1.445       .  S
C3180      C3181   1.397       .  A
C3181      C3182   1.386       .  A
C3181      H3184   1.083       .  S
C3182      C3185   1.442       .  S
C3185      N3187   1.157       .  T
C3186      N3188   1.157       .  T
C3189      C3190   1.418       .  A
C3189      C3194   1.414       .  A
C3190      C3191   1.423       .  A
C3190      H3195   1.084       .  S
C3191      C3192   1.415       .  A
C3191      C3198   1.443       .  S
C3192      C3193   1.421       .  A
C3193      C3194   1.427       .  A
C3193      H3196   1.084       .  S
C3194      C3197   1.441       .  S
C3197      N3199   1.157       .  T
C3198      N3200   1.157       .  T
C3201      C3202   1.400       .  A
C3201      C3206   1.410       .  A
C3202      C3203   1.397       .  A
C3202      H3207   1.084       .  S
C3203      C3204   1.423       .  A
C3203      C3210   1.444       .  S
C3204      C3205   1.415       .  A
C3205      C3206   1.414       .  A
C3205      H3208   1.084       .  S
C3206      C3209   1.441       .  S
C3209      N3211   1.157       .  T
C3210      N3212   1.157       .  T
C3213      C3214   1.404       .  A
C3213      C3218   1.396       .  A
C3214      C3215   1.398       .  A
C3214      H3219   1.084       .  S
C3215      C3216   1.401       .  A
C3215      C3222   1.440       .  S
C3216      C3217   1.405       .  A
C3217      C3218   1.377       .  A
C3217      H3220   1.081       .  S
C3218      C3221   1.442       .  S
C3221      N3223   1.156       .  T
C3222      N3224   1.157       .  T
C3225      C3226   1.403       .  A
C3225      C3230   1.414       .  A
C3226      C3227   1.386       .  A
C3226      H3231   1.081       .  S
C3227      C3228   1.415       .  A
C3227      C3234   1.448       .  S
C3228      C3229   1.410       .  A
C3229      C3230   1.408       .  A
C3229      H3232   1.082       .  S
C3230      C3233   1.440       .  S
C3233      N3235   1.157       .  T
C3234      N3236   1.158       .  T
C3237      C3238   1.416       .  A
C3237      C3242   1.418       .  A
C3238      C3239   1.427       .  A
C3238      H3243   1.083       .  S
C3239      C3240   1.417       .  A
C3239      C3246   1.442       .  S
C3240      C3241   1.411       .  A
C3241      C3242   1.416       .  A
C3241      H3244   1.085       .  S
C3242      C3245   1.443       .  S
C3245      N3247   1.157       .  T
C3246      N3248   1.157       .  T
C3249      C3250   1.409       .  A
C3249      C3254   1.416       .  A
C3250      C3251   1.417       .  A
C3250      H3255   1.084       .  S
C3251      C3252   1.420       .  A
C3251      C3258   1.442       .  S
C3252      C3253   1.405       .  A
C3253      C3254   1.403       .  A
C3253      H3256   1.085       .  S
C3254      C3257   1.440       .  S
C3257      N3259   1.157       .  T
C3258      N3260   1.157       .  T
C3261      C3262   1.394       .  A
C3261      C3266   1.407       .  A
C3262      C3263   1.393       .  A
C3262      H3267   1.084       .  S
C3263      C3264   1.412       .  A
C3263      C3270   1.441       .  S
C3264      C3265   1.393       .  A
C3265      C3266   1.377       .  A
C3265      H3268   1.083       .  S
C3266      C3269   1.443       .  S
C3269      N3271   1.157       .  T
C3270      N3272   1.157       .  T
C3273      C3274   1.407       .  A
C3273      C3278   1.399       .  A
C3274      C3275   1.411       .  A
C3274      H3279   1.085       .  S
C3275      C3276   1.418       .  A
C3275      C3282   1.441       .  S
C3276      C3277   1.409       .  A
C3277      C3278   1.381       .  A
C3277      H3280   1.077       .  S
C3278      C3281   1.440       .  S
C3281      N3283   1.157       .  T
C3282      N3284   1.157       .  T
C3285      C3286   1.407       .  A
C3285      C3290   1.413       .  A
C3286      C3287   1.403       .  A
C3286      H3291   1.084       .  S
C3287      C3288   1.406       .  A
C3287      C3294   1.442       .  S
C3288      C3289   1.401       .  A
C3289      C3290   1.401       .  A
C3289      H3292   1.083       .  S
C3290      C3293   1.443       .  S
C3293      N3295   1.157       .  T
C3294      N3296   1.157   1_455  T
C3297      C3298   1.409       .  A
C3297      C3302   1.418       .  A
C3298      C3299   1.403       .  A
C3298      H3303   1.077       .  S
C3299      C3300   1.415       .  A
C3299      C3306   1.442       .  S
C3300      C3301   1.414       .  A
C3301      C3302   1.414       .  A
C3301      H3304   1.082       .  S
C3302      C3305   1.443       .  S
C3305      N3307   1.157       .  T
C3306      N3308   1.157       .  T
C3309      C3310   1.401       .  A
C3309      C3314   1.404       .  A
C3310      C3311   1.389       .  A
C3310      H3315   1.085       .  S
C3311      C3312   1.405       .  A
C3311      C3318   1.443       .  S
C3312      C3313   1.404       .  A
C3313      C3314   1.390       .  A
C3313      H3316   1.084       .  S
C3314      C3317   1.443       .  S
C3317      N3319   1.157       .  T
C3318      N3320   1.157       .  T
C3321      C3322   1.409       .  A
C3321      C3326   1.413       .  A
C3322      C3323   1.403       .  A
C3322      H3327   1.083       .  S
C3323      C3324   1.407       .  A
C3323      C3330   1.442       .  S
C3324      C3325   1.407       .  A
C3325      C3326   1.411       .  A
C3325      H3328   1.083       .  S
C3326      C3329   1.442       .  S
C3329      N3331   1.157       .  T
C3330      N3332   1.157       .  T
C3333      C3334   1.402       .  A
C3333      C3338   1.410       .  A
C3334      C3335   1.393       .  A
C3334      H3339   1.085       .  S
C3335      C3336   1.407       .  A
C3335      C3342   1.444       .  S
C3336      C3337   1.402       .  A
C3337      C3338   1.403       .  A
C3337      H3340   1.084       .  S
C3338      C3341   1.442       .  S
C3341      N3343   1.157       .  T
C3342      N3344   1.157       .  T
C3345      C3346   1.409       .  A
C3345      C3350   1.423       .  A
C3346      C3347   1.401       .  A
C3346      H3351   1.082       .  S
C3347      C3348   1.412       .  A
C3347      C3354   1.443       .  S
C3348      C3349   1.401       .  A
C3349      C3350   1.407       .  A
C3349      H3352   1.085       .  S
C3350      C3353   1.443       .  S
C3353      N3355   1.157       .  T
C3354      N3356   1.157       .  T
C3357      C3358   1.406       .  A
C3357      C3362   1.408       .  A
C3358      C3359   1.402       .  A
C3358      H3363   1.084       .  S
C3359      C3360   1.407       .  A
C3359      C3366   1.442       .  S
C3360      C3361   1.405       .  A
C3361      C3362   1.401       .  A
C3361      H3364   1.083       .  S
C3362      C3365   1.442       .  S
C3365      N3367   1.157       .  T
C3366      N3368   1.157       .  T
C3369      C3370   1.405       .  A
C3369      C3374   1.410       .  A
C3370      C3371   1.384       .  A
C3370      H3375   1.084       .  S
C3371      C3372   1.401       .  A
C3371      C3378   1.444       .  S
C3372      C3373   1.401       .  A
C3373      C3374   1.398       .  A
C3373      H3376   1.085       .  S
C3374      C3377   1.443       .  S
C3377      N3379   1.157       .  T
C3378      N3380   1.157       .  T
C3381      C3382   1.410       .  A
C3381      C3386   1.422       .  A
C3382      C3383   1.409   1_455  A
C3382      H3387   1.073       .  S
C3383      C3384   1.411       .  A
C3383      C3390   1.443       .  S
C3384      C3385   1.402       .  A
C3385      C3386   1.401   1_655  A
C3385      H3388   1.080       .  S
C3386      C3389   1.445       .  S
C3389      N3391   1.157       .  T
C3390      N3392   1.157       .  T
C3393      C3394   1.404       .  A
C3393      C3398   1.417       .  A
C3394      C3395   1.402       .  A
C3394      H3399   1.083       .  S
C3395      C3396   1.418       .  A
C3395      C3402   1.443       .  S
C3396      C3397   1.412       .  A
C3397      C3398   1.423       .  A
C3397      H3400   1.084       .  S
C3398      C3401   1.440       .  S
C3401      N3403   1.157       .  T
C3402      N3404   1.156       .  T
C3405      C3406   1.427       .  A
C3405      C3410   1.410       .  A
C3406      C3407   1.434       .  A
C3406      H3411   1.081       .  S
C3407      C3408   1.417       .  A
C3407      C3414   1.440       .  S
C3408      C3409   1.428       .  A
C3409      C3410   1.420       .  A
C3409      H3412   1.083       .  S
C3410      C3413   1.441       .  S
C3413      N3415   1.156       .  T
C3414      N3416   1.157       .  T
C3417      C3418   1.395       .  A
C3417      C3422   1.413       .  A
C3418      C3419   1.376       .  A
C3418      H3423   1.081       .  S
C3419      C3420   1.401       .  A
C3419      C3426   1.445       .  S
C3420      C3421   1.400       .  A
C3421      C3422   1.400       .  A
C3421      H3424   1.084       .  S
C3422      C3425   1.440       .  S
C3425      N3427   1.157       .  T
C3426      N3428   1.157       .  T
C3429      C3430   1.410       .  A
C3429      C3434   1.416       .  A
C3430      C3431   1.399       .  A
C3430      H3435   1.072       .  S
C3431      C3432   1.413       .  A
C3431      C3438   1.443       .  S
C3432      C3433   1.407       .  A
C3433      C3434   1.404       .  A
C3433      H3436   1.083       .  S
C3434      C3437   1.439       .  S
C3437      N3439   1.157       .  T
C3438      N3440   1.157       .  T
C3441      C3442   1.415       .  A
C3441      C3446   1.421       .  A
C3442      C3443   1.426       .  A
C3442      H3447   1.084       .  S
C3443      C3444   1.419       .  A
C3443      C3450   1.442       .  S
C3444      C3445   1.407       .  A
C3445      C3446   1.415       .  A
C3445      H3448   1.085       .  S
C3446      C3449   1.442       .  S
C3449      N3451   1.157       .  T
C3450      N3452   1.157       .  T
C3453      C3454   1.411       .  A
C3453      C3458   1.408       .  A
C3454      C3455   1.406       .  A
C3454      H3459   1.084       .  S
C3455      C3456   1.409       .  A
C3455      C3462   1.443       .  S
C3456      C3457   1.412       .  A
C3457      C3458   1.411       .  A
C3457      H3460   1.084       .  S
C3458      C3461   1.441       .  S
C3461      N3463   1.157       .  T
C3462      N3464   1.157       .  T
C3465      C3466   1.415       .  A
C3465      C3470   1.414       .  A
C3466      C3467   1.426       .  A
C3466      H3471   1.084       .  S
C3467      C3468   1.421       .  A
C3467      C3474   1.441       .  S
C3468      C3469   1.413   1_655  A
C3469      C3470   1.401   1_455  A
C3469      H3472   1.080       .  S
C3470      C3473   1.441       .  S
C3473      N3475   1.157   1_655  T
C3474      N3476   1.157       .  T
C3477      C3478   1.422       .  A
C3477      C3482   1.404       .  A
C3478      C3479   1.411       .  A
C3478      H3483   1.076       .  S
C3479      C3480   1.413       .  A
C3479      C3486   1.443       .  S
C3480      C3481   1.422       .  A
C3481      C3482   1.404       .  A
C3481      H3484   1.073       .  S
C3482      C3485   1.442       .  S
C3485      N3487   1.157       .  T
C3486      N3488   1.158       .  T
C3489      C3490   1.408       .  A
C3489      C3494   1.415       .  A
C3490      C3491   1.395       .  A
C3490      H3495   1.084       .  S
C3491      C3492   1.401       .  A
C3491      C3498   1.442       .  S
C3492      C3493   1.398       .  A
C3493      C3494   1.398       .  A
C3493      H3496   1.078       .  S
C3494      C3497   1.443       .  S
C3497      N3499   1.158       .  T
C3498      N3500   1.157       .  T
C3501      C3502   1.411       .  A
C3501      C3506   1.417       .  A
C3502      C3503   1.401       .  A
C3502      H3507   1.080       .  S
C3503      C3504   1.409       .  A
C3503      C3510   1.442       .  S
C3504      C3505   1.409       .  A
C3505      C3506   1.405       .  A
C3505      H3508   1.075       .  S
C3506      C3509   1.445       .  S
C3509      N3511   1.157       .  T
C3510      N3512   1.157       .  T
C3513      C3514   1.418       .  A
C3513      C3518   1.414       .  A
C3514      C3515   1.389       .  A
C3514      H3519   1.079       .  S
C3515      C3516   1.400       .  A
C3515      C3522   1.446       .  S
C3516      C3517   1.406       .  A
C3517      C3518   1.397       .  A
C3517      H3520   1.084       .  S
C3518      C3521   1.442       .  S
C3521      N3523   1.158       .  T
C3522      N3524   1.157       .  T
C3525      C3526   1.403       .  A
C3525      C3530   1.421       .  A
C3526      C3527   1.409       .  A
C3526      H3531   1.082       .  S
C3527      C3528   1.425       .  A
C3527      C3534   1.445       .  S
C3528      C3529   1.417       .  A
C3529      C3530   1.432       .  A
C3529      H3532   1.083       .  S
C3530      C3533   1.442       .  S
C3533      N3535   1.157       .  T
C3534      N3536   1.157       .  T
C3537      C3538   1.412       .  A
C3537      C3542   1.427       .  A
C3538      C3539   1.418       .  A
C3538      H3543   1.083       .  S
C3539      C3540   1.418       .  A
C3539      C3546   1.444       .  S
C3540      C3541   1.407       .  A
C3541      C3542   1.419       .  A
C3541      H3544   1.084       .  S
C3542      C3545   1.444       .  S
C3545      N3547   1.157       .  T
C3546      N3548   1.157       .  T
C3549      C3550   1.413       .  A
C3549      C3554   1.432       .  A
C3550      C3551   1.396       .  A
C3550      H3555   1.063       .  S
C3551      C3552   1.399       .  A
C3551      C3558   1.441       .  S
C3552      C3553   1.398       .  A
C3553      C3554   1.402       .  A
C3553      H3556   1.086       .  S
C3554      C3557   1.431       .  S
C3557      N3559   1.157       .  T
C3558      N3560   1.157       .  T
C3561      C3562   1.398       .  A
C3561      C3566   1.408       .  A
C3562      C3563   1.398       .  A
C3562      H3567   1.084       .  S
C3563      C3564   1.410       .  A
C3563      C3570   1.441       .  S
C3564      C3565   1.395       .  A
C3565      C3566   1.379       .  A
C3565      H3568   1.086       .  S
C3566      C3569   1.444       .  S
C3569      N3571   1.157       .  T
C3570      N3572   1.157       .  T
C3573      C3574   1.407       .  A
C3573      C3578   1.422       .  A
C3574      C3575   1.415       .  A
C3574      H3579   1.084       .  S
C3575      C3576   1.420       .  A
C3575      C3582   1.443       .  S
C3576      C3577   1.402       .  A
C3577      C3578   1.412       .  A
C3577      H3580   1.085       .  S
C3578      C3581   1.440       .  S
C3581      N3583   1.156       .  T
C3582      N3584   1.157       .  T
C3585      C3586   1.405       .  A
C3585      C3590   1.425       .  A
C3586      C3587   1.424       .  A
C3586      H3591   1.084       .  S
C3587      C3588   1.426       .  A
C3587      C3594   1.433       .  S
C3588      C3589   1.411       .  A
C3589      C3590   1.426       .  A
C3589      H3592   1.084       .  S
C3590      C3593   1.443       .  S
C3593      N3595   1.157       .  T
C3594      N3596   1.154       .  T
C3597      C3598   1.411       .  A
C3597      C3602   1.427       .  A
C3598      C3599   1.410       .  A
C3598      H3603   1.082       .  S
C3599      C3600   1.411       .  A
C3599      C3606   1.442       .  S
C3600      C3601   1.389       .  A
C3601      C3602   1.392       .  A
C3601      H3604   1.079       .  S
C3602      C3605   1.441       .  S
C3605      N3607   1.156       .  T
C3606      N3608   1.157       .  T
C3609      C3610   1.385       .  A
C3609      C3614   1.418       .  A
C3610      C3611   1.386       .  A
C3610      H3615   1.064       .  S
C3611      C3612   1.427       .  A
C3611      C3618   1.445       .  S
C3612      C3613   1.414       .  A
C3613      C3614   1.422       .  A
C3613      H3616   1.083       .  S
C3614      C3617   1.440       .  S
C3617      N3619   1.157       .  T
C3618      N3620   1.157       .  T
C3621      C3622   1.401       .  A
C3621      C3626   1.408   1_545  A
C3622      C3623   1.404       .  A
C3622      H3627   1.083       .  S
C3623      C3624   1.426       .  A
C3623      C3630   1.442       .  S
C3624      C3625   1.416   1_545  A
C3625      C3626   1.410       .  A
C3625      H3628   1.081       .  S
C3626      C3629   1.441       .  S
C3629      N3631   1.157       .  T
C3630      N3632   1.157       .  T
C3633      C3634   1.411       .  A
C3633      C3638   1.412       .  A
C3634      C3635   1.397       .  A
C3634      H3639   1.083       .  S
C3635      C3636   1.401       .  A
C3635      C3642   1.443       .  S
C3636      C3637   1.400       .  A
C3637      C3638   1.389       .  A
C3637      H3640   1.084       .  S
C3638      C3641   1.442       .  S
C3641      N3643   1.157       .  T
C3642      N3644   1.157       .  T
C3645      C3646   1.415       .  A
C3645      C3650   1.421       .  A
C3646      C3647   1.392       .  A
C3646      H3651   1.074       .  S
C3647      C3648   1.400       .  A
C3647      C3654   1.445       .  S
C3648      C3649   1.403       .  A
C3649      C3650   1.408       .  A
C3649      H3652   1.085       .  S
C3650      C3653   1.443   1_565  S
C3653      N3655   1.157       .  T
C3654      N3656   1.157       .  T
C3657      C3658   1.406       .  A
C3657      C3662   1.413       .  A
C3658      C3659   1.397       .  A
C3658      H3663   1.083       .  S
C3659      C3660   1.402       .  A
C3659      C3666   1.442       .  S
C3660      C3661   1.396       .  A
C3661      C3662   1.394       .  A
C3661      H3664   1.083       .  S
C3662      C3665   1.440       .  S
C3665      N3667   1.157       .  T
C3666      N3668   1.157       .  T
C3669      C3670   1.406       .  A
C3669      C3674   1.412       .  A
C3670      C3671   1.393       .  A
C3670      H3675   1.082       .  S
C3671      C3672   1.404       .  A
C3671      C3678   1.444       .  S
C3672      C3673   1.397       .  A
C3673      C3674   1.392       .  A
C3673      H3676   1.085       .  S
C3674      C3677   1.443       .  S
C3677      N3679   1.157       .  T
C3678      N3680   1.157       .  T
C3681      C3682   1.406       .  A
C3681      C3686   1.423       .  A
C3682      C3683   1.393       .  A
C3682      H3687   1.077       .  S
C3683      C3684   1.404       .  A
C3683      C3690   1.441       .  S
C3684      C3685   1.400       .  A
C3685      C3686   1.398       .  A
C3685      H3688   1.086       .  S
C3686      C3689   1.445       .  S
C3689      N3691   1.157       .  T
C3690      N3692   1.157       .  T
C3693      C3694   1.404       .  A
C3693      C3698   1.408       .  A
C3694      C3695   1.398       .  A
C3694      H3699   1.083   1_545  S
C3695      C3696   1.404       .  A
C3695      C3702   1.440   1_545  S
C3696      C3697   1.406       .  A
C3697      C3698   1.405       .  A
C3697      H3700   1.081       .  S
C3698      C3701   1.442       .  S
C3701      N3703   1.157       .  T
C3702      N3704   1.156       .  T
C3705      C3706   1.408       .  A
C3705      C3710   1.423       .  A
C3706      C3707   1.392       .  A
C3706      H3711   1.078       .  S
C3707      C3708   1.402       .  A
C3707      C3714   1.444       .  S
C3708      C3709   1.395       .  A
C3709      C3710   1.393       .  A
C3709      H3712   1.085       .  S
C3710      C3713   1.445       .  S
C3713      N3715   1.157   1_545  T
C3714      N3716   1.157       .  T
C3717      C3718   1.409       .  A
C3717      C3722   1.412       .  A
C3718      C3719   1.391       .  A
C3718      H3723   1.080       .  S
C3719      C3720   1.404       .  A
C3719      C3726   1.445       .  S
C3720      C3721   1.402       .  A
C3721      C3722   1.395       .  A
C3721      H3724   1.085       .  S
C3722      C3725   1.442       .  S
C3725      N3727   1.157       .  T
C3726      N3728   1.157   1_554  T
C3729      C3730   1.408       .  A
C3729      C3734   1.422       .  A
C3730      C3731   1.423       .  A
C3730      H3735   1.084       .  S
C3731      C3732   1.428       .  A
C3731      C3738   1.443       .  S
C3732      C3733   1.411       .  A
C3733      C3734   1.419       .  A
C3733      H3736   1.084       .  S
C3734      C3737   1.443       .  S
C3737      N3739   1.157       .  T
C3738      N3740   1.157       .  T
C3741      C3742   1.407       .  A
C3741      C3746   1.422       .  A
C3742      C3743   1.417       .  A
C3742      H3747   1.084       .  S
C3743      C3744   1.423       .  A
C3743      C3750   1.443       .  S
C3744      C3745   1.404       .  A
C3745      C3746   1.414       .  A
C3745      H3748   1.084       .  S
C3746      C3749   1.444       .  S
C3749      N3751   1.157       .  T
C3750      N3752   1.157       .  T
C3753      C3754   1.413       .  A
C3753      C3758   1.402       .  A
C3754      C3755   1.413       .  A
C3754      H3759   1.084       .  S
C3755      C3756   1.412       .  A
C3755      C3762   1.439       .  S
C3756      C3757   1.410       .  A
C3757      C3758   1.378       .  A
C3757      H3760   1.084   1_565  S
C3758      C3761   1.439       .  S
C3761      N3763   1.158   1_565  T
C3762      N3764   1.157       .  T
C3765      C3766   1.404       .  A
C3765      C3770   1.402       .  A
C3766      C3767   1.393       .  A
C3766      H3771   1.083       .  S
C3767      C3768   1.404       .  A
C3767      C3774   1.442       .  S
C3768      C3769   1.399       .  A
C3769      C3770   1.385       .  A
C3769      H3772   1.084       .  S
C3770      C3773   1.447       .  S
C3773      N3775   1.157       .  T
C3774      N3776   1.157       .  T
C3777      C3778   1.411       .  A
C3777      C3782   1.422       .  A
C3778      C3779   1.423       .  A
C3778      H3783   1.084       .  S
C3779      C3780   1.419       .  A
C3779      C3786   1.442       .  S
C3780      C3781   1.406       .  A
C3781      C3782   1.414       .  A
C3781      H3784   1.085       .  S
C3782      C3785   1.444       .  S
C3785      N3787   1.157       .  T
C3786      N3788   1.157       .  T
C3789      C3790   1.405       .  A
C3789      C3794   1.414       .  A
C3790      C3791   1.416       .  A
C3790      H3795   1.083       .  S
C3791      C3792   1.424       .  A
C3791      C3798   1.442       .  S
C3792      C3793   1.413       .  A
C3793      C3794   1.413       .  A
C3793      H3796   1.084       .  S
C3794      C3797   1.442       .  S
C3797      N3799   1.157       .  T
C3798      N3800   1.157       .  T
C3801      C3802   1.403       .  A
C3801      C3806   1.399       .  A
C3802      C3803   1.394       .  A
C3802      H3807   1.084       .  S
C3803      C3804   1.401       .  A
C3803      C3810   1.441       .  S
C3804      C3805   1.399       .  A
C3805      C3806   1.377       .  A
C3805      H3808   1.084       .  S
C3806      C3809   1.442       .  S
C3809      N3811   1.157       .  T
C3810      N3812   1.157       .  T
C3813      C3814   1.381       .  A
C3813      C3818   1.413       .  A
C3814      C3815   1.381       .  A
C3814      H3819   1.080       .  S
C3815      C3816   1.429       .  A
C3815      C3822   1.436       .  S
C3816      C3817   1.406       .  A
C3817      C3818   1.408       .  A
C3817      H3820   1.082       .  S
C3818      C3821   1.443       .  S
C3821      N3823   1.157       .  T
C3822      N3824   1.154       .  T
C3825      C3826   1.403       .  A
C3825      C3830   1.407       .  A
C3826      C3827   1.405       .  A
C3826      H3831   1.084       .  S
C3827      C3828   1.416       .  A
C3827      C3834   1.441       .  S
C3828      C3829   1.408       .  A
C3829      C3830   1.399       .  A
C3829      H3832   1.084       .  S
C3830      C3833   1.441       .  S
C3833      N3835   1.157       .  T
C3834      N3836   1.157       .  T
C3837      C3838   1.401       .  A
C3837      C3842   1.411       .  A
C3838      C3839   1.383       .  A
C3838      H3843   1.082       .  S
C3839      C3840   1.408       .  A
C3839      C3846   1.444       .  S
C3840      C3841   1.395       .  A
C3841      C3842   1.391       .  A
C3841      H3844   1.085       .  S
C3842      C3845   1.442       .  S
C3845      N3847   1.157       .  T
C3846      N3848   1.157       .  T
C3849      C3850   1.411       .  A
C3849      C3854   1.421       .  A
C3850      C3851   1.397       .  A
C3850      H3855   1.075       .  S
C3851      C3852   1.404       .  A
C3851      C3858   1.445       .  S
C3852      C3853   1.404       .  A
C3853      C3854   1.407       .  A
C3853      H3856   1.085       .  S
C3854      C3857   1.444       .  S
C3857      N3859   1.157       .  T
C3858      N3860   1.157       .  T
C3861      C3862   1.416       .  A
C3861      C3866   1.418       .  A
C3862      C3863   1.426       .  A
C3862      H3867   1.083       .  S
C3863      C3864   1.418       .  A
C3863      C3870   1.442       .  S
C3864      C3865   1.415       .  A
C3865      C3866   1.423       .  A
C3865      H3868   1.084       .  S
C3866      C3869   1.440       .  S
C3869      N3871   1.157       .  T
C3870      N3872   1.157       .  T
C3873      C3874   1.401       .  A
C3873      C3878   1.415       .  A
C3874      C3875   1.407       .  A
C3874      H3879   1.081       .  S
C3875      C3876   1.428       .  A
C3875      C3882   1.445       .  S
C3876      C3877   1.410       .  A
C3877      C3878   1.417       .  A
C3877      H3880   1.084       .  S
C3878      C3881   1.441       .  S
C3881      N3883   1.157       .  T
C3882      N3884   1.158       .  T
C3885      C3886   1.413       .  A
C3885      C3890   1.421       .  A
C3886      C3887   1.391       .  A
C3886      H3891   1.080       .  S
C3887      C3888   1.409       .  A
C3887      C3894   1.443       .  S
C3888      C3889   1.409       .  A
C3889      C3890   1.417       .  A
C3889      H3892   1.085       .  S
C3890      C3893   1.440       .  S
C3893      N3895   1.157       .  T
C3894      N3896   1.158       .  T
C3897      C3898   1.414       .  A
C3897      C3902   1.431       .  A
C3898      C3899   1.406       .  A
C3898      H3903   1.081       .  S
C3899      C3900   1.408       .  A
C3899      C3906   1.444       .  S
C3900      C3901   1.393       .  A
C3901      C3902   1.399       .  A
C3901      H3904   1.083       .  S
C3902      C3905   1.440       .  S
C3905      N3907   1.157       .  T
C3906      N3908   1.157       .  T
C3909      C3910   1.412       .  A
C3909      C3914   1.413       .  A
C3910      C3911   1.420       .  A
C3910      H3915   1.084       .  S
C3911      C3912   1.417       .  A
C3911      C3918   1.442       .  S
C3912      C3913   1.409       .  A
C3913      C3914   1.404       .  A
C3913      H3916   1.085       .  S
C3914      C3917   1.443       .  S
C3917      N3919   1.157       .  T
C3918      N3920   1.157       .  T
C3921      C3922   1.410       .  A
C3921      C3926   1.414       .  A
C3922      C3923   1.411       .  A
C3922      H3927   1.085       .  S
C3923      C3924   1.411       .  A
C3923      C3930   1.444       .  S
C3924      C3925   1.412       .  A
C3925      C3926   1.415       .  A
C3925      H3928   1.084       .  S
C3926      C3929   1.441       .  S
C3929      N3931   1.157       .  T
C3930      N3932   1.157       .  T
C3933      C3934   1.398       .  A
C3933      C3938   1.414       .  A
C3934      C3935   1.383       .  A
C3934      H3939   1.082       .  S
C3935      C3936   1.405       .  A
C3935      C3942   1.440       .  S
C3936      C3937   1.397       .  A
C3937      C3938   1.396       .  A
C3937      H3940   1.084       .  S
C3938      C3941   1.440       .  S
C3941      N3943   1.156       .  T
C3942      N3944   1.156       .  T
C3945      C3946   1.395       .  A
C3945      C3950   1.412       .  A
C3946      C3947   1.377       .  A
C3946      H3951   1.086       .  S
C3947      C3948   1.407       .  A
C3947      C3954   1.443       .  S
C3948      C3949   1.391       .  A
C3949      C3950   1.386       .  A
C3949      H3952   1.085       .  S
C3950      C3953   1.440       .  S
C3953      N3955   1.156       .  T
C3954      N3956   1.157       .  T
