geometry optimzed in LAMMPS
_audit_creation_date              2020-11-30 
_audit_creation_method            'lammps2cif' 
_symmetry_space_group_name_H-M    'P1' 
_symmetry_Int_Tables_number       1 
_symmetry_cell_setting            triclinic 
loop_ 
_symmetry_equiv_pos_as_xyz 
  x,y,z 
_cell_length_a                    33.0473477 
_cell_length_b                    33.42311415392294 
_cell_length_c                    46.907991663961525 
_cell_angle_alpha                 90.18871843656837 
_cell_angle_beta                  89.74812911787994 
_cell_angle_gamma                 89.74603585452853 
loop_ 
_atom_site_label 
_atom_site_type_symbol 
_atom_site_fract_x 
_atom_site_fract_y 
_atom_site_fract_z 
_atom_site_charge 
C1          C  0.28879631  0.74517593  0.04800174     0.86300
C2          C  0.28885138  0.77890314  0.02564826    -0.53900
C3          C  0.26016604  0.78981140  0.51534948     0.09200
C4          C  0.22978514  0.75452229  0.51971213     0.20200
C5          C  0.24698388  0.74865128  0.06261491    -0.54700
C6          C  0.21443313  0.74810878  0.04448114     0.09300
C7          C  0.28629893  0.70662209  0.03021408    -0.54200
C8          C  0.25598774  0.71521078  0.51832123     0.09900
H9          H  0.31573008  0.81056605  0.53436405     0.14400
H10         H  0.20396054  0.75468568  0.50464750     0.00100
H11         H  0.24344650  0.75058730  0.08561391     0.14700
H12         H  0.30848942  0.69065205  0.53909390     0.14500
C13         C  0.25514959  0.80175698  0.20642762     0.86300
C14         C  0.29218309  0.79752446  0.22558186    -0.53900
C15         C  0.29343163  0.76407050  0.24237960     0.09200
C16         C  0.25431561  0.73703636  0.23833280     0.20200
C17         C  0.25330702  0.76230786  0.18942904    -0.54700
C18         C  0.25214705  0.72831103  0.20569110     0.09300
C19         C  0.21881947  0.79926014  0.22713945    -0.54200
C20         C  0.21670722  0.76522872  0.24350771     0.09900
H21         H  0.31639948  0.81938932  0.22527949     0.14400
H22         H  0.25411195  0.70957785  0.25158534     0.00100
H23         H  0.25251274  0.76141214  0.16628615     0.23500
H24         H  0.19508589  0.82183208  0.22746150     0.14500
C25         C  0.79011956  0.25117690  0.50611221     0.86300
C26         C  0.78954789  0.20951039  0.03299087    -0.53900
C27         C  0.75796272  0.21073635  0.05174017     0.09200
C28         C  0.72877567  0.24693373  0.04632606     0.20200
C29         C  0.74875844  0.24880322  0.49094576    -0.54700
C30         C  0.71556849  0.25061888  0.50873665     0.09300
C31         C  0.78900570  0.28150031  0.02871458    -0.54200
C32         C  0.75711944  0.28427592  0.04762704     0.09900
H33         H  0.81266053  0.18637186  0.03384613     0.14400
H34         H  0.70293492  0.24845634  0.06150804     0.00100
H35         H  0.74602309  0.24595606  0.46797018     0.14700
H36         H  0.81248734  0.30407566  0.02754719     0.14500
C37         C  0.79672216  0.25849973  0.19988791     0.86300
C38         C  0.79650674  0.22330137  0.22106125    -0.53900
C39         C  0.76379294  0.22182937  0.23920080     0.09200
C40         C  0.73453638  0.25872352  0.23499677     0.20200
C41         C  0.75541067  0.25608367  0.18501033    -0.54700
C42         C  0.72264874  0.25607705  0.20288324     0.09300
C43         C  0.79414953  0.29594463  0.21877043    -0.54200
C44         C  0.76201077  0.29729713  0.23735140     0.09900
H45         H  0.81939271  0.19988074  0.22039146     0.14400
H46         H  0.70808148  0.25890709  0.24966988     0.00100
H47         H  0.75235592  0.25464600  0.16196993     0.14700
H48         H  0.81602448  0.31999086  0.21726885     0.14500
C49         C  0.12479165  0.71515262  0.08623132     0.80000
N50         N  0.09746996  0.74315941  0.07981020    -0.78300
C51         C  0.10470389  0.77211244  0.06077955     0.82500
N52         N  0.14262617  0.77469674  0.04862428    -0.78200
C53         C  0.17181678  0.74669630  0.05572357     0.82600
N54         N  0.16207824  0.71636928  0.07397374    -0.79900
C55         C  0.12525791  0.71421696  0.27735180     0.80000
N56         N  0.16285664  0.71907988  0.26479615    -0.78300
C57         C  0.17819912  0.75706486  0.26069903     0.82500
N58         N  0.15558092  0.78927659  0.26982537    -0.78200
C59         C  0.11846860  0.78415373  0.28209764     0.82600
N60         N  0.10422336  0.74702603  0.28553389    -0.79900
C61         C  0.79280059  0.36074549  0.10017506     0.80000
N62         N  0.79192770  0.33124822  0.08008449    -0.78300
C63         C  0.75591199  0.31726440  0.06980205     0.82500
N64         N  0.72054936  0.33579633  0.07840899    -0.78200
C65         C  0.72207570  0.36606370  0.09836325     0.82600
N66         N  0.75801148  0.37751786  0.10884270    -0.79900
C67         C  0.78706694  0.39037204  0.27960169     0.80000
N68         N  0.79017452  0.35533346  0.26451969    -0.78300
C69         C  0.75655627  0.33404882  0.25641562     0.82500
N70         N  0.71904171  0.34883720  0.26366045    -0.78200
C71         C  0.71549074  0.38427475  0.27854162     0.82600
N72         N  0.74955444  0.40405701  0.28613850    -0.79900
C73         C  0.36974529  0.78670153  0.09655580     0.80000
N74         N  0.38865736  0.75339811  0.10524206    -0.78300
C75         C  0.37737403  0.71694649  0.09623163     0.82500
N76         N  0.34583843  0.71351214  0.07739112    -0.78200
C77         C  0.32473363  0.74719776  0.06905632     0.82600
N78         N  0.33748165  0.78380777  0.07860431    -0.79900
C79         C  0.38925366  0.78634554  0.28323483     0.80000
N80         N  0.35347304  0.79032570  0.26888404    -0.78300
C81         C  0.33108617  0.75746467  0.26080577     0.82500
N82         N  0.34582259  0.71997246  0.26724250    -0.78200
C83         C  0.38262480  0.71592939  0.28074155     0.82600
N84         N  0.40311490  0.74911875  0.28850940    -0.79900
C85         C  0.71807028  0.14097946  0.10777366     0.80000
N86         N  0.75216519  0.12163337  0.11499267    -0.78300
C87         C  0.78757041  0.12889310  0.10197335     0.82500
N88         N  0.78926594  0.15778318  0.08158364    -0.78200
C89         C  0.75550834  0.17997353  0.07500748     0.82600
N90         N  0.71939667  0.17009807  0.08733617    -0.79900
C91         C  0.71371700  0.13506654  0.27738517     0.80000
N92         N  0.71873042  0.17086086  0.26342518    -0.78300
C93         C  0.75699157  0.18483594  0.25761566     0.82500
N94         N  0.78977434  0.16231735  0.26620302    -0.78200
C95         C  0.78484939  0.12695597  0.28052549     0.82600
N96         N  0.74681440  0.11421731  0.28560425    -0.79900
C97         C  0.87036431  0.21973043  0.14492980     0.80000
N98         N  0.89241823  0.25230537  0.13901620    -0.78300
C99         C  0.88552299  0.28755944  0.15216377     0.82500
N100        N  0.85575542  0.29003203  0.17261805    -0.78200
C101        C  0.83210272  0.25721897  0.17848075     0.82600
N102        N  0.84032028  0.22202814  0.16478373    -0.79900
C103        C  0.87659632  0.20445897  0.46437971     0.80000
N104        N  0.89868100  0.23674243  0.45795432    -0.78300
C105        C  0.88684637  0.27422218  0.46474818     0.82500
N106        N  0.85137742  0.27943750  0.47965925    -0.78200
C107        C  0.82792150  0.24691954  0.48670474     0.82600
N108        N  0.84070594  0.20931556  0.47848417    -0.79900
Zn109      Zn  0.93221193  0.99707086  0.14583043     1.49700
Zn110      Zn  0.92351460  0.94647988  0.09056360     1.49400
Zn111      Zn  0.99937119  0.00348391  0.09606824     1.49100
Zn112      Zn  0.98199277  0.92946440  0.14156702     1.49500
O113        O  0.96088223  0.97047878  0.11748453    -1.84300
O114        O  0.87991731  0.96963634  0.14757481    -0.75000
O115        O  0.92394977  0.97545680  0.05365557    -0.74800
O116        O  0.98192947  0.06248315  0.10563203    -0.74300
O117        O  0.86490438  0.95198371  0.10434599    -0.75000
O118        O  0.92728458  0.05034218  0.13261970    -0.74600
O119        O  0.98920689  0.99118799  0.05250413    -0.75200
O120        O  0.03681841  0.93822872  0.13663467    -0.74500
O121        O  0.95085394  0.89441767  0.07959661    -0.75300
O122        O  0.05903395  0.98632840  0.10894494    -0.74700
O123        O  0.98210666  0.87642371  0.11982706    -0.75200
O124        O  0.98522069  0.93993735  0.18590088    -0.75100
O125        O  0.96161868  0.00113843  0.18232797    -0.74900
C126        C  0.86107680  0.97700107  0.12474539     0.76900
C127        C  0.95602937  0.98256527  0.03970506     0.77400
C128        C  0.95048498  0.07418547  0.11967037     0.76400
C129        C  0.06568325  0.95659842  0.12565763     0.76800
C130        C  0.97644859  0.87281496  0.09288228     0.77900
C131        C  0.98128505  0.97528947  0.19633909     0.76900
Zn132      Zn  0.02681263  0.00935797  0.40694819     1.49700
Zn133      Zn  0.99956183  0.05617783  0.35242751     1.49400
Zn134      Zn  0.06274677  0.98667453  0.35267973     1.49100
Zn135      Zn  0.96445741  0.96807529  0.36509232     1.49500
O136        O  0.01247180  0.00507618  0.36754776    -1.84300
O137        O  0.99314396  0.05525555  0.42358532    -0.75000
O138        O  0.03405540  0.06445196  0.31664687    -0.74800
O139        O  0.10422971  0.96895832  0.38225488    -0.74300
O140        O  0.98808299  0.09510507  0.38551623    -0.75000
O141        O  0.08459720  0.00229178  0.42049460    -0.74600
O142        O  0.07745326  0.01394669  0.31627724    -0.75200
O143        O  0.98774245  0.91345812  0.34615227    -0.74500
O144        O  0.94606203  0.05592502  0.33435957    -0.75300
O145        O  0.05027705  0.93540151  0.33890051    -0.74700
O146        O  0.91769573  0.99665904  0.34073647    -0.75200
O147        O  0.94467225  0.96331336  0.40847196    -0.75100
O148        O  0.00796928  0.95765747  0.41998970    -0.74900
C149        C  0.98002758  0.08721624  0.41173554     0.76900
C150        C  0.05195240  0.03590227  0.30323777     0.77400
C151        C  0.10731814  0.97592552  0.40888769     0.76400
C152        C  0.02434610  0.90809333  0.33711032     0.76800
C153        C  0.91653575  0.03253564  0.33076919     0.77900
C154        C  0.97170113  0.95914395  0.42773085     0.76900
C155        C  0.21848272  0.89035264  0.16339836     0.80000
N156        N  0.21949201  0.85710392  0.18021737    -0.78300
C157        C  0.25545293  0.83954423  0.18743221     0.82500
N158        N  0.29085194  0.85604405  0.17721168    -0.78200
C159        C  0.28909710  0.88869869  0.15952992     0.82600
N160        N  0.25313295  0.90489238  0.15305355    -0.79900
C161        C  0.21777736  0.87269404  0.46920581     0.80000
N162        N  0.25232583  0.89064492  0.46117803    -0.78300
C163        C  0.28868689  0.87667185  0.46910051     0.82500
N164        N  0.29097569  0.84355119  0.48590566    -0.78200
C165        C  0.25642518  0.82423484  0.49452910     0.82600
N166        N  0.21941093  0.83898824  0.48593258    -0.79900
Zn167      Zn  0.51122522  0.06392286  0.08853218     1.49700
Zn168      Zn  0.50784965  0.99883858  0.14192855     1.49400
Zn169      Zn  0.44321742  0.07105911  0.13537621     1.49100
Zn170      Zn  0.44694427  0.00506862  0.08653846     1.49500
O171        O  0.47798670  0.03355142  0.11429754    -1.84300
O172        O  0.56206661  0.06046884  0.10504464    -0.75000
O173        O  0.49125734  0.01263343  0.18377444    -0.74800
O174        O  0.46795889  0.12696672  0.13288722    -0.74300
O175        O  0.56981857  0.01291357  0.13768367    -0.75000
O176        O  0.49918084  0.12159414  0.09163126    -0.74600
O177        O  0.44884126  0.06287371  0.17666627    -0.75200
O178        O  0.38961048  0.02191834  0.08982404    -0.74500
O179        O  0.48925755  0.93933622  0.13431706    -0.75300
O180        O  0.38439364  0.05296205  0.13086872    -0.74700
O181        O  0.44574538  0.95135759  0.09922232    -0.75200
O182        O  0.47167307  0.99994347  0.04689500    -0.75100
O183        O  0.52243140  0.04200800  0.04869521    -0.74900
C184        C  0.58392993  0.04111446  0.12202309     0.76900
C185        C  0.46720846  0.03955430  0.19348101     0.77400
C186        C  0.49864991  0.13437753  0.11719666     0.76400
C187        C  0.37607624  0.02272007  0.11529674     0.76800
C188        C  0.46212040  0.92766888  0.11660923     0.77900
C189        C  0.50375434  0.01418667  0.03586084     0.76900
Zn190      Zn  0.43258640  0.00187390  0.35241743     1.49700
Zn191      Zn  0.53025817  0.98601738  0.35887852     1.49400
Zn192      Zn  0.49314626  0.07558855  0.35656776     1.49100
Zn193      Zn  0.47348130  0.02074362  0.40759730     1.49500
O194        O  0.48274016  0.02135945  0.36709739    -1.84300
O195        O  0.44289404  0.95356012  0.32959527    -0.75000
O196        O  0.57189997  0.01854963  0.33333056    -0.74800
O197        O  0.45202770  0.09242572  0.32735215    -0.74300
O198        O  0.50646757  0.93404727  0.33757683    -0.75000
O199        O  0.40909109  0.04139613  0.32511397    -0.74600
O200        O  0.54385470  0.07874381  0.33425181    -0.75200
O201        O  0.50661080  0.06571476  0.42638576    -0.74500
O202        O  0.55674922  0.97585191  0.39972419    -0.75300
O203        O  0.50736645  0.10996882  0.39105525    -0.74700
O204        O  0.49571328  0.96811921  0.41643787    -0.75200
O205        O  0.41696721  0.01166263  0.42270089    -0.75100
O206        O  0.39673039  0.98033704  0.38385665    -0.74900
C207        C  0.47118379  0.92818365  0.32655533     0.76900
C208        C  0.57246253  0.05578272  0.32642040     0.77400
C209        C  0.43066106  0.06788685  0.31296469     0.76400
C210        C  0.51804205  0.09928833  0.41609614     0.76800
C211        C  0.53313443  0.96899096  0.42083157     0.77900
C212        C  0.39455125  0.98572052  0.41072685     0.76900
C213        C  0.62396707  0.28952537  0.17279620     0.80000
N214        N  0.65983344  0.28979094  0.18706615    -0.78300
C215        C  0.68054976  0.25469476  0.19106891     0.82500
N216        N  0.66529848  0.21979470  0.17973538    -0.78200
C217        C  0.62918852  0.22058597  0.16544888     0.82600
N218        N  0.60943558  0.25527982  0.16240168    -0.79900
C219        C  0.61903250  0.21061860  0.47737994     0.80000
N220        N  0.65691479  0.21237109  0.48904853    -0.78300
C221        C  0.67281093  0.24851649  0.49733277     0.82500
N222        N  0.65105384  0.28293591  0.49214631    -0.78200
C223        C  0.61309792  0.28085144  0.48045632     0.82600
N224        N  0.59807562  0.24478203  0.47323561    -0.79900
Zn225      Zn  0.06580773  0.51621398  0.10004058     1.49700
Zn226      Zn  0.01243989  0.44752399  0.09444178     1.49400
Zn227      Zn  0.07344592  0.44972015  0.14627956     1.49100
Zn228      Zn  0.99625328  0.51134780  0.14628675     1.49500
O229        O  0.03557752  0.48087652  0.12276509    -1.84300
O230        O  0.04006222  0.52884624  0.06055103    -0.75000
O231        O  0.03363200  0.39280001  0.10086834    -0.74800
O232        O  0.13198402  0.46843542  0.14051660    -0.74300
O233        O  0.01049871  0.47036651  0.05412936    -0.75000
O234        O  0.12157697  0.49575986  0.09910876    -0.74600
O235        O  0.05311460  0.39226784  0.14555741    -0.75200
O236        O  0.01120656  0.50460702  0.18934643    -0.74500
O237        O  0.95680294  0.44312835  0.10430120    -0.75300
O238        O  0.06516397  0.46489491  0.18643528    -0.74700
O239        O  0.93876579  0.48700086  0.13793380    -0.75200
O240        O  0.00410127  0.57154237  0.13460458    -0.75100
O241        O  0.06899402  0.56108919  0.12558453    -0.74900
C242        C  0.01906070  0.50530414  0.04500785     0.76900
C243        C  0.02870012  0.38045918  0.12636376     0.77400
C244        C  0.13715711  0.49797790  0.12378312     0.76400
C245        C  0.04034871  0.48541236  0.20113905     0.76800
C246        C  0.93024018  0.45896308  0.12015480     0.77900
C247        C  0.03965170  0.58457285  0.12886676     0.76900
Zn248      Zn  0.01352873  0.48059224  0.41535810     1.49700
Zn249      Zn  0.97835511  0.53477299  0.36601576     1.49400
Zn250      Zn  0.07135956  0.50613184  0.36577860     1.49100
Zn251      Zn  0.00274536  0.43955006  0.35874324     1.49500
O252        O  0.01697873  0.49027961  0.37485904    -1.84300
O253        O  0.95890197  0.50035030  0.42245746    -0.75000
O254        O  0.00850432  0.57627968  0.33878777    -0.74800
O255        O  0.10084160  0.52537599  0.40159736    -0.74300
O256        O  0.96793402  0.56101245  0.40750064    -0.75000
O257        O  0.05573921  0.51451449  0.43626641    -0.74600
O258        O  0.07130506  0.55409971  0.34221416    -0.75200
O259        O  0.04448765  0.42384160  0.32989063    -0.74500
O260        O  0.92786623  0.50738113  0.34421943    -0.75300
O261        O  0.09402912  0.46698965  0.33675465    -0.74700
O262        O  0.95209982  0.44581650  0.33739928    -0.75200
O263        O  0.98828330  0.39823737  0.38842047    -0.75100
O264        O  0.00689625  0.42446402  0.42968568    -0.74900
C265        C  0.96114692  0.53694752  0.42817927     0.76900
C266        C  0.04627146  0.57901453  0.33224115     0.77400
C267        C  0.08854901  0.53036477  0.42730419     0.76400
C268        C  0.06937506  0.44930960  0.32000044     0.76800
C269        C  0.92459890  0.47180149  0.33351744     0.77900
C270        C  0.99040813  0.39652631  0.41548746     0.76900
C271        C  0.28499196  0.63568407  0.16792854     0.80000
N272        N  0.24966738  0.61901937  0.16106689    -0.78300
C273        C  0.21426641  0.63514789  0.16921096     0.82500
N274        N  0.21398693  0.67008433  0.18478183    -0.78200
C275        C  0.25028736  0.68769418  0.19203626     0.82600
N276        N  0.28571364  0.66996239  0.18363849    -0.79900
C277        C  0.27212051  0.61891924  0.47779837     0.80000
N278        N  0.23362418  0.60655343  0.47515407    -0.78300
C279        C  0.20189635  0.62839952  0.48439061     0.82500
N280        N  0.20845501  0.66479271  0.49706595    -0.78200
C281        C  0.24743300  0.67788280  0.50105568     0.82600
N282        N  0.27918824  0.65462329  0.49124046    -0.79900
Zn283      Zn  0.56119669  0.49933182  0.16428702     1.49700
Zn284      Zn  0.56309740  0.55884315  0.11233240     1.49400
Zn285      Zn  0.49090528  0.49390116  0.11524139     1.49100
Zn286      Zn  0.50078384  0.56287911  0.16391607     1.49500
O287        O  0.52794421  0.52797989  0.13772103    -1.84300
O288        O  0.61950604  0.50907372  0.15716257    -0.75000
O289        O  0.54978538  0.54795975  0.07182343    -0.74800
O290        O  0.50359541  0.43457388  0.12483979    -0.74300
O291        O  0.61917626  0.53261136  0.11337466    -0.75000
O292        O  0.55594900  0.44519599  0.15364662    -0.74600
O293        O  0.50189075  0.50158482  0.07200692    -0.75200
O294        O  0.44627066  0.56502507  0.15188594    -0.74500
O295        O  0.54685341  0.61807273  0.11505003    -0.75300
O296        O  0.43200002  0.51202075  0.12473614    -0.74700
O297        O  0.52096737  0.61781496  0.15813148    -0.75200
O298        O  0.49439163  0.54207105  0.20447634    -0.75100
O299        O  0.54167622  0.49579762  0.20535309    -0.74900
C300        C  0.63151112  0.50673413  0.13135020     0.76900
C301        C  0.52626664  0.52460019  0.05863735     0.77400
C302        C  0.53314444  0.42202534  0.13999117     0.76400
C303        C  0.42128938  0.54321118  0.13890765     0.76800
C304        C  0.51913081  0.62946323  0.13233346     0.77900
C305        C  0.51159284  0.51310526  0.21716340     0.76900
Zn306      Zn  0.42481702  0.49530680  0.36051640     1.49700
Zn307      Zn  0.46760415  0.47118390  0.41502790     1.49400
Zn308      Zn  0.49548918  0.42844331  0.36024924     1.49100
Zn309      Zn  0.52058553  0.52269695  0.36475982     1.49500
O310        O  0.47844545  0.48073131  0.37458597    -1.84300
O311        O  0.38425416  0.51031257  0.39158204    -0.75000
O312        O  0.48748812  0.41799378  0.43161080    -0.74800
O313        O  0.45416875  0.41001457  0.33160493    -0.74300
O314        O  0.41634622  0.49648608  0.43155461    -0.75000
O315        O  0.40759118  0.45625206  0.33010447    -0.74600
O316        O  0.51434548  0.39179034  0.39237653    -0.75200
O317        O  0.56725412  0.49493777  0.33887230    -0.74500
O318        O  0.50644729  0.50371562  0.43237313    -0.75300
O319        O  0.54504913  0.43278282  0.33806946    -0.74700
O320        O  0.54585452  0.54088499  0.40463518    -0.75200
O321        O  0.49039052  0.57132939  0.34264850    -0.75100
O322        O  0.42881112  0.54612959  0.34107212    -0.74900
C323        C  0.38663465  0.51253022  0.41865070     0.76900
C324        C  0.51095721  0.39270145  0.41947116     0.77400
C325        C  0.43685112  0.43807740  0.31785217     0.76400
C326        C  0.57138845  0.45814705  0.33092877     0.76800
C327        C  0.53496337  0.52808632  0.42934457     0.77900
C328        C  0.45282526  0.57417395  0.33536808     0.76900
C329        C  0.50536108  0.45706421  0.25236772    -0.20500
C330        C  0.49409356  0.49624053  0.24437501    -0.07100
C331        C  0.46276391  0.51529984  0.26030241     0.13800
C332        C  0.44463310  0.49519193  0.28346323    -0.20600
C333        C  0.45638003  0.45634526  0.29177379    -0.07100
C334        C  0.48655559  0.43669835  0.27518336     0.13800
C335        C  0.49737226  0.39333644  0.27988553    -0.23900
H336        H  0.52800476  0.44129360  0.23983205     0.15100
H337        H  0.42032801  0.50998076  0.29489150     0.15100
C338        C  0.44760238  0.55670990  0.25316229    -0.23900
H339        H  0.51958170  0.38227605  0.26385084     0.05300
H340        H  0.46976214  0.37468999  0.27815469     0.08500
H341        H  0.51116211  0.38901537  0.30108429     0.08500
H342        H  0.43313664  0.55674011  0.23187644     0.08500
H343        H  0.47307341  0.57825773  0.25359328     0.08500
H344        H  0.42427387  0.56729274  0.26854036     0.05300
C345        C  0.52184057  0.55942938  0.01167941    -0.20500
C346        C  0.52917804  0.52402210  0.02709347    -0.07100
C347        C  0.54319679  0.48982627  0.01236052     0.13800
C348        C  0.56808597  0.50317150  0.47135188    -0.20600
C349        C  0.55441290  0.53753745  0.45680165    -0.07100
C350        C  0.53926718  0.56987125  0.47315703     0.13800
C351        C  0.52480824  0.60749475  0.45881944    -0.23900
H352        H  0.51201287  0.58598612  0.02299036     0.15100
H353        H  0.57893727  0.47788375  0.45886903     0.15100
C354        C  0.55103762  0.45088356  0.02757074    -0.23900
H355        H  0.51374946  0.62995949  0.47455977     0.05300
H356        H  0.49957154  0.60056354  0.44408079     0.08500
H357        H  0.55009303  0.62092200  0.44653914     0.08500
H358        H  0.52259747  0.44000550  0.03747900     0.08500
H359        H  0.57403170  0.45498960  0.04438016     0.08500
H360        H  0.56227553  0.42732736  0.01274059     0.05300
C361        C  0.29137927  0.57160805  0.43910511    -0.20500
C362        C  0.30382217  0.59343369  0.46333359    -0.07100
C363        C  0.34344589  0.58682291  0.47363346     0.13800
C364        C  0.36914655  0.55901388  0.45939628    -0.20600
C365        C  0.35647536  0.53757390  0.43494107    -0.07100
C366        C  0.31663883  0.54401167  0.42500141     0.13800
C367        C  0.29973768  0.52133806  0.39987509    -0.23900
H368        H  0.26113958  0.57619265  0.43084784     0.15100
H369        H  0.39973965  0.55473192  0.46706929     0.15100
C370        C  0.35846703  0.60821007  0.49979786    -0.23900
H371        H  0.26693329  0.52733045  0.39693325     0.05300
H372        H  0.30355927  0.48866720  0.40322473     0.08500
H373        H  0.31520112  0.53048109  0.37992019     0.08500
H374        H  0.33835045  0.60161330  0.51819481     0.08500
H375        H  0.35884822  0.64096219  0.49598791     0.08500
H376        H  0.38966503  0.59870754  0.50544733     0.05300
C377        C  0.32900168  0.60561380  0.13124333    -0.20500
C378        C  0.32100841  0.61260432  0.16030786    -0.07100
C379        C  0.34034351  0.58918936  0.18104936     0.13800
C380        C  0.36856194  0.56039759  0.17232065    -0.20600
C381        C  0.37934568  0.55570732  0.14342945    -0.07100
C382        C  0.35846298  0.57775281  0.12253849     0.13800
C383        C  0.36742399  0.57338914  0.09118952    -0.23900
H384        H  0.31224798  0.62215346  0.11527696     0.15100
H385        H  0.38524864  0.54397567  0.18839178     0.15100
C386        C  0.33133809  0.59470453  0.21237222    -0.23900
H387        H  0.37806068  0.60235590  0.08251765     0.05300
H388        H  0.33940791  0.56454003  0.07985107     0.08500
H389        H  0.39080609  0.55031392  0.08671444     0.08500
H390        H  0.29878907  0.58900830  0.21662232     0.08500
H391        H  0.33874516  0.62577930  0.21890653     0.08500
H392        H  0.34938579  0.57392185  0.22574009     0.05300
C393        C  0.11687719  0.59785389  0.43725506    -0.20500
C394        C  0.11146756  0.55807586  0.44621657    -0.07100
C395        C  0.12844931  0.54604137  0.47238632     0.13800
C396        C  0.15335038  0.57285909  0.48754524    -0.20600
C397        C  0.16169278  0.61157850  0.47726761    -0.07100
C398        C  0.14155643  0.62469644  0.45251234     0.13800
C399        C  0.14850478  0.66615762  0.44107678    -0.23900
H400        H  0.10283468  0.60756082  0.41759890     0.15100
H401        H  0.16929754  0.56233593  0.50625060     0.15100
C402        C  0.12213846  0.50435238  0.48356136    -0.23900
H403        H  0.13044423  0.67184892  0.42158216     0.05300
H404        H  0.18095493  0.67016543  0.43561173     0.08500
H405        H  0.13957760  0.68860392  0.45746631     0.08500
H406        H  0.13364139  0.48213123  0.46782210     0.08500
H407        H  0.08939912  0.49917797  0.48736503     0.08500
H408        H  0.13823064  0.49954626  0.50401438     0.05300
C409        C  0.15273882  0.54314257  0.16552286    -0.20500
C410        C  0.15127517  0.53769300  0.13564707    -0.07100
C411        C  0.16031764  0.57130995  0.11821434     0.13800
C412        C  0.17342650  0.60733165  0.13088887    -0.20600
C413        C  0.17867464  0.61126147  0.16049577    -0.07100
C414        C  0.16628282  0.57922118  0.17798300     0.13800
C415        C  0.16978133  0.58238694  0.20991646    -0.23900
H416        H  0.14418131  0.51869751  0.17937025     0.15100
H417        H  0.18383415  0.63141919  0.11730309     0.15100
C418        C  0.15814934  0.56939337  0.08612826    -0.23900
H419        H  0.15879583  0.55494833  0.22071497     0.05300
H420        H  0.15131060  0.60809314  0.21762181     0.08500
H421        H  0.20182770  0.58702335  0.21607819     0.08500
H422        H  0.12645757  0.56447777  0.07929108     0.08500
H423        H  0.17785199  0.54486201  0.07800501     0.08500
H424        H  0.16840531  0.59767223  0.07609107     0.05300
C425        C  0.02320387  0.46687900  0.28013680    -0.20500
C426        C  0.06330336  0.46328248  0.29006612    -0.07100
C427        C  0.09526962  0.47339071  0.27141679     0.13800
C428        C  0.08645930  0.48334736  0.24291850    -0.20600
C429        C  0.04640447  0.48452814  0.23259768    -0.07100
C430        C  0.01433417  0.47772157  0.25187178     0.13800
C431        C  0.97084239  0.47997938  0.24250105    -0.23900
H432        H  0.99843847  0.46063457  0.29454719     0.15100
H433        H  0.11121510  0.48895362  0.22824738     0.15100
C434        C  0.13867134  0.47198175  0.28097459    -0.23900
H435        H  0.94963644  0.47392240  0.26034237     0.05300
H436        H  0.96521022  0.45764340  0.22541494     0.08500
H437        H  0.96403595  0.51046523  0.23446696     0.08500
H438        H  0.14618816  0.44155120  0.28882085     0.08500
H439        H  0.14347277  0.49416387  0.29827587     0.08500
H440        H  0.15987308  0.47925787  0.26331193     0.05300
C441        C  0.96569737  0.50049486  0.00755339    -0.20500
C442        C  0.00197378  0.51820864  0.01655066    -0.07100
C443        C  0.01974127  0.54712455  0.99827055     0.13800
C444        C  0.99794209  0.56829681  0.46938762    -0.20600
C445        C  0.96423145  0.54693979  0.45924399    -0.07100
C446        C  0.94270652  0.52297577  0.47899251     0.13800
C447        C  0.90311457  0.50328735  0.47161702    -0.23900
H448        H  0.95040110  0.47971661  0.02149073     0.15100
H449        H  0.01450794  0.58722595  0.45474612     0.15100
C450        C  0.05611646  0.57030219  0.00748528    -0.23900
H451        H  0.87983505  0.51189943  0.48767477     0.05300
H452        H  0.90680485  0.47025809  0.47182390     0.08500
H453        H  0.89168281  0.51258548  0.45043450     0.08500
H454        H  0.08099285  0.54962104  0.01342735     0.08500
H455        H  0.04743235  0.58871338  0.02617343     0.08500
H456        H  0.06720223  0.59065566  0.99051881     0.05300
C457        C  0.60546110  0.33976061  0.44855183    -0.20500
C458        C  0.58942368  0.31639114  0.47059739    -0.07100
C459        C  0.54761920  0.32055065  0.47724884     0.13800
C460        C  0.52272206  0.34600913  0.46078747    -0.20600
C461        C  0.53813672  0.36668662  0.43713934    -0.07100
C462        C  0.58053855  0.36472609  0.43180494     0.13800
C463        C  0.60000395  0.38933782  0.40862932    -0.23900
H464        H  0.63725396  0.33655086  0.44319479     0.15100
H465        H  0.49078196  0.34867412  0.46580717     0.15100
C466        C  0.52908516  0.29782794  0.50171234    -0.23900
H467        H  0.63346082  0.38600785  0.40854519     0.05300
H468        H  0.59279510  0.42150928  0.41197647     0.08500
H469        H  0.58897857  0.37965013  0.38740758     0.08500
H470        H  0.54550898  0.30495402  0.52168047     0.08500
H471        H  0.53072496  0.26514826  0.49768843     0.08500
H472        H  0.49672360  0.30585639  0.50488269     0.05300
C473        C  0.54048556  0.36561272  0.17136699    -0.20500
C474        C  0.54413380  0.38012711  0.14337423    -0.07100
C475        C  0.57460868  0.36449335  0.12538570     0.13800
C476        C  0.60250833  0.33696338  0.13639625    -0.20600
C477        C  0.60091131  0.32519519  0.16509892    -0.07100
C478        C  0.56867229  0.33843053  0.18246489     0.13800
C479        C  0.56427026  0.32404267  0.21271783    -0.23900
H480        H  0.51779427  0.37859192  0.18543738     0.15100
H481        H  0.62563143  0.32431662  0.12252854     0.15100
C482        C  0.57871221  0.37847479  0.09499161    -0.23900
H483        H  0.53737595  0.33746468  0.22337748     0.05300
H484        H  0.59157262  0.33230949  0.22509061     0.08500
H485        H  0.56074881  0.29102343  0.21296849     0.08500
H486        H  0.58447158  0.41115236  0.09444217     0.08500
H487        H  0.55035141  0.37207158  0.08326301     0.08500
H488        H  0.60405746  0.36311508  0.08374707     0.05300
C489        C  0.54503195  0.12679518  0.46251702    -0.20500
C490        C  0.54699084  0.12513749  0.43251183    -0.07100
C491        C  0.57896155  0.14599030  0.41863774     0.13800
C492        C  0.60543931  0.16999518  0.43468172    -0.20600
C493        C  0.60150819  0.17400691  0.46430890    -0.07100
C494        C  0.57147367  0.15139645  0.47844611     0.13800
C495        C  0.56669529  0.15422238  0.51031501    -0.23900
H496        H  0.52188836  0.10982914  0.47349739     0.15100
H497        H  0.62799192  0.18783433  0.42375277     0.15100
C498        C  0.58604298  0.14298031  0.38688033    -0.23900
H499        H  0.54218335  0.13445943  0.51822776     0.05300
H500        H  0.55925100  0.18546188  0.51660603     0.08500
H501        H  0.59538341  0.14506919  0.52073011     0.08500
H502        H  0.56036986  0.15658338  0.37517476     0.08500
H503        H  0.58973674  0.11111570  0.38058963     0.08500
H504        H  0.61384992  0.15901987  0.38015591     0.05300
C505        C  0.56407082  0.17145359  0.11178821    -0.20500
C506        C  0.53646714  0.15192926  0.12980316    -0.07100
C507        C  0.54798541  0.14589689  0.15874347     0.13800
C508        C  0.58362677  0.16339480  0.16935229    -0.20600
C509        C  0.60892124  0.18618170  0.15189830    -0.07100
C510        C  0.59990105  0.18843493  0.12240526     0.13800
C511        C  0.62639347  0.21126784  0.10196982    -0.23900
H512        H  0.55713380  0.17465625  0.08933937     0.15100
H513        H  0.59006235  0.16196983  0.19197740     0.15100
C514        C  0.52377736  0.12020794  0.17863784    -0.23900
H515        H  0.63557492  0.19138360  0.08404747     0.05300
H516        H  0.65434911  0.22244053  0.11227009     0.08500
H517        H  0.60936364  0.23719721  0.09330097     0.08500
H518        H  0.52166545  0.08986188  0.16920388     0.08500
H519        H  0.49327962  0.13333394  0.18218336     0.08500
H520        H  0.53833281  0.11717126  0.19983184     0.05300
C521        C  0.42059605  0.06125744  0.23247337    -0.20500
C522        C  0.45858051  0.04490190  0.22454978    -0.07100
C523        C  0.48720940  0.03710168  0.24616144     0.13800
C524        C  0.47736522  0.04645650  0.27465281    -0.20600
C525        C  0.43948613  0.06271444  0.28227281    -0.07100
C526        C  0.41047110  0.06938280  0.26102734     0.13800
C527        C  0.36909173  0.08542393  0.26844021    -0.23900
H528        H  0.39840841  0.06778938  0.21621647     0.15100
H529        H  0.49911361  0.04018377  0.29128676     0.15100
C530        C  0.52837248  0.01991515  0.23946550    -0.23900
H531        H  0.35007809  0.08940072  0.24917686     0.05300
H532        H  0.37196225  0.11490029  0.27920621     0.08500
H533        H  0.35338610  0.06430321  0.28292122     0.08500
H534        H  0.54454445  0.03967095  0.22426399     0.08500
H535        H  0.52517867  0.98957136  0.23008272     0.08500
H536        H  0.54721858  0.01713335  0.25890718     0.05300
C537        C  0.54949570  0.01816716  0.99245509    -0.20500
C538        C  0.52037929  0.99690976  0.00849988    -0.07100
C539        C  0.50983512  0.95794133  0.99890512     0.13800
C540        C  0.52284724  0.94189627  0.46860166    -0.20600
C541        C  0.54493294  0.96838572  0.45141112    -0.07100
C542        C  0.56148841  0.00272738  0.46443630     0.13800
C543        C  0.59164640  0.02826541  0.44875784    -0.23900
H544        H  0.56068959  0.04641570  0.00052508     0.15100
H545        H  0.51090907  0.91495822  0.45886621     0.15100
C546        C  0.48432395  0.92984766  0.01645496    -0.23900
H547        H  0.60142107  0.05420877  0.46184578     0.05300
H548        H  0.57877805  0.03981429  0.42864594     0.08500
H549        H  0.61882546  0.00999431  0.44353394     0.08500
H550        H  0.45301734  0.94162078  0.01864808     0.08500
H551        H  0.49829314  0.92595066  0.03774533     0.08500
H552        H  0.48209567  0.89974386  0.00649093     0.05300
C553        C  0.36131240  0.91947441  0.41593227    -0.20500
C554        C  0.36941260  0.95735188  0.42798581    -0.07100
C555        C  0.35634798  0.96481580  0.45638793     0.13800
C556        C  0.33347827  0.93557846  0.47087146    -0.20600
C557        C  0.32415754  0.89865122  0.45816613    -0.07100
C558        C  0.33897660  0.89031138  0.43057339     0.13800
C559        C  0.32972698  0.85109496  0.41607641    -0.23900
H560        H  0.37232191  0.91248735  0.39468811     0.15100
H561        H  0.32090528  0.94238578  0.49172544     0.15100
C562        C  0.36477459  0.00387740  0.47126746    -0.23900
H563        H  0.34383997  0.84909972  0.39457519     0.05300
H564        H  0.29652433  0.84768625  0.41357246     0.08500
H565        H  0.34155846  0.82602354  0.42913322     0.08500
H566        H  0.35278135  0.02910810  0.45844131     0.08500
H567        H  0.39783464  0.00743746  0.47437723     0.08500
H568        H  0.35028185  0.00527224  0.49266257     0.05300
C569        C  0.33693833  0.94229852  0.16782449    -0.20500
C570        C  0.32397312  0.91221385  0.14928319    -0.07100
C571        C  0.32902572  0.91831452  0.11957589     0.13800
C572        C  0.34627730  0.95403315  0.10938483    -0.20600
C573        C  0.35697565  0.98555448  0.12784951    -0.07100
C574        C  0.35187333  0.97907145  0.15769562     0.13800
C575        C  0.36091355  0.01068078  0.17943622    -0.23900
H576        H  0.33119525  0.93867458  0.19045663     0.15100
H577        H  0.34985048  0.95774029  0.08656727     0.15100
C578        C  0.31308760  0.88897506  0.09794929    -0.23900
H579        H  0.35400546  0.00087458  0.20153100     0.05300
H580        H  0.34280999  0.03805724  0.17521752     0.08500
H581        H  0.39342065  0.01700520  0.17842427     0.08500
H582        H  0.28756616  0.90282297  0.08618149     0.08500
H583        H  0.30237802  0.86087169  0.10794850     0.08500
H584        H  0.33724357  0.88118293  0.08239521     0.05300
C585        C  0.14015827  0.90919182  0.41701963    -0.20500
C586        C  0.13355920  0.94881204  0.42671174    -0.07100
C587        C  0.14887556  0.95937203  0.45390515     0.13800
C588        C  0.17217609  0.93137117  0.46939443    -0.20600
C589        C  0.18023158  0.89256236  0.45898706    -0.07100
C590        C  0.16313189  0.88124110  0.43270953     0.13800
C591        C  0.17076069  0.84006337  0.42063896    -0.23900
H592        H  0.12751185  0.89993049  0.39680967     0.15100
H593        H  0.18650928  0.94069978  0.48905785     0.15100
C594        C  0.14265163  0.00060614  0.46624364    -0.23900
H595        H  0.15450136  0.83538410  0.40026259     0.05300
H596        H  0.16007806  0.81719637  0.43601708     0.08500
H597        H  0.20362366  0.83562548  0.41664802     0.08500
H598        H  0.11003117  0.00585224  0.47061263     0.08500
H599        H  0.15408403  0.02343284  0.45110351     0.08500
H600        H  0.15899082  0.00445214  0.48670604     0.05300
C601        C  0.13951047  0.96503824  0.13584068    -0.20500
C602        C  0.10606507  0.93988320  0.13312429    -0.07100
C603        C  0.11029770  0.89858696  0.14097150     0.13800
C604        C  0.14711409  0.88430557  0.15104152    -0.20600
C605        C  0.18020493  0.90925118  0.15413460    -0.07100
C606        C  0.17654815  0.95044637  0.14650363     0.13800
C607        C  0.21068789  0.97977760  0.15046957    -0.23900
H608        H  0.13625801  0.99642804  0.13055295     0.15100
H609        H  0.15013267  0.85292267  0.15648514     0.15100
C610        C  0.07661833  0.86821127  0.13924083    -0.23900
H611        H  0.20086161  0.01100343  0.14618974     0.05300
H612        H  0.23580555  0.97297192  0.13543246     0.08500
H613        H  0.22175476  0.97856630  0.17277082     0.08500
H614        H  0.08744412  0.83710367  0.14276507     0.08500
H615        H  0.05335156  0.87423091  0.15584486     0.08500
H616        H  0.06310205  0.86885931  0.11787747     0.05300
C617        C  0.99405097  0.02933872  0.23244468    -0.20500
C618        C  0.00057749  0.98912056  0.22394961    -0.07100
C619        C  0.02760030  0.96590931  0.24056913     0.13800
C620        C  0.04531308  0.98279207  0.26528746    -0.20600
C621        C  0.03776445  0.02275141  0.27407475    -0.07100
C622        C  0.01245977  0.04649262  0.25661100     0.13800
C623        C  0.00532200  0.09036441  0.26258199    -0.23900
H624        H  0.97428696  0.04813693  0.21993012     0.15100
H625        H  0.06455692  0.96397482  0.27827634     0.15100
C626        C  0.03817091  0.92341713  0.23259812    -0.23900
H627        H  0.98732969  0.10486064  0.24550658     0.05300
H628        H  0.03478489  0.10608056  0.26390416     0.08500
H629        H  0.98831575  0.09453723  0.28276877     0.08500
H630        H  0.05292577  0.92270307  0.21128446     0.08500
H631        H  0.01038055  0.90490485  0.23227992     0.08500
H632        H  0.05945501  0.90968810  0.24805037     0.05300
C633        C  0.97244861  0.93902875  0.99874649    -0.20500
C634        C  0.95479088  0.97471033  0.00850695    -0.07100
C635        C  0.93042464  0.99707619  0.98952219     0.13800
C636        C  0.93996005  0.99483039  0.46909109    -0.20600
C637        C  0.96467822  0.96346830  0.45903043    -0.07100
C638        C  0.99153778  0.94474542  0.47856841     0.13800
C639        C  0.01685135  0.90861137  0.47075469    -0.23900
H640        H  0.98876471  0.92024332  0.01363120     0.15100
H641        H  0.92016823  0.01009358  0.45426822     0.15100
C642        C  0.90845837  0.03403677  0.99964803    -0.23900
H643        H  0.01133135  0.88439937  0.48644694     0.05300
H644        H  0.04943908  0.91659311  0.47119842     0.08500
H645        H  0.00936834  0.89624570  0.44947538     0.08500
H646        H  0.93037254  0.05577677  0.00854101     0.08500
H647        H  0.88641826  0.02584277  0.01650068     0.08500
H648        H  0.89167247  0.04879265  0.98208354     0.05300
C649        C  0.94017594  0.29739164  0.43119823    -0.20500
C650        C  0.91344992  0.30727653  0.45387386    -0.07100
C651        C  0.91544091  0.34634514  0.46551339     0.13800
C652        C  0.94308175  0.37409381  0.45378528    -0.20600
C653        C  0.96856718  0.36403501  0.43057481    -0.07100
C654        C  0.96753908  0.32480623  0.41964950     0.13800
C655        C  0.99572741  0.31122175  0.39607472    -0.23900
H656        H  0.93955693  0.26775316  0.42181634     0.15100
H657        H  0.94360434  0.40440166  0.46204585     0.15100
C658        C  0.88892533  0.35907628  0.49013568    -0.23900
H659        H  0.99319476  0.27859535  0.39190672     0.05300
H660        H  0.02752982  0.31746570  0.40213609     0.08500
H661        H  0.98847446  0.32677812  0.37588638     0.08500
H662        H  0.89419878  0.33913993  0.50865470     0.08500
H663        H  0.85663542  0.35772769  0.48381993     0.08500
H664        H  0.89535797  0.39025484  0.49697728     0.05300
C665        C  0.92557203  0.14885972  0.46993891    -0.20500
C666        C  0.89338504  0.16562358  0.45440161    -0.07100
C667        C  0.88891613  0.15461439  0.42550821     0.13800
C668        C  0.91747233  0.12893314  0.41254046    -0.20600
C669        C  0.95102480  0.11387500  0.42755455    -0.07100
C670        C  0.95427783  0.12299665  0.45698852     0.13800
C671        C  0.98940285  0.10798832  0.47435988    -0.23900
H672        H  0.92999158  0.15844314  0.49180362     0.15100
H673        H  0.91388224  0.12108548  0.39025159     0.15100
C674        C  0.85498644  0.17172527  0.40790899    -0.23900
H675        H  0.98830476  0.11960954  0.49656304     0.05300
H676        H  0.01828336  0.11780741  0.46450032     0.08500
H677        H  0.98893419  0.07487685  0.47546192     0.08500
H678        H  0.85762163  0.20479012  0.40680850     0.08500
H679        H  0.82548755  0.16387730  0.41778117     0.08500
H680        H  0.85543071  0.15983579  0.38576496     0.05300
C681        C  0.93758751  0.33669169  0.16786239    -0.20500
C682        C  0.91514190  0.31977152  0.14563553    -0.07100
C683        C  0.92916897  0.32497881  0.11724384     0.13800
C684        C  0.96657382  0.34335816  0.11207307    -0.20600
C685        C  0.99055377  0.35845330  0.13427046    -0.07100
C686        C  0.97472005  0.35636477  0.16263847     0.13800
C687        C  0.99618851  0.37478593  0.18771358    -0.23900
H688        H  0.92714002  0.33261806  0.18959478     0.15100
H689        H  0.97688336  0.34607476  0.09019605     0.15100
C690        C  0.90560581  0.31076423  0.09167223    -0.23900
H691        H  0.97900192  0.37081703  0.20791065     0.05300
H692        H  0.99965698  0.40743508  0.18429568     0.08500
H693        H  0.02627378  0.36048832  0.19051859     0.08500
H694        H  0.87492774  0.30001016  0.09734717     0.08500
H695        H  0.92249618  0.28629665  0.08077299     0.08500
H696        H  0.90168269  0.33583127  0.07645699     0.05300
C697        C  0.90536769  0.15934026  0.15863724    -0.20500
C698        C  0.88820831  0.18133932  0.13652608    -0.07100
C699        C  0.89832869  0.17182441  0.10786874     0.13800
C700        C  0.92325150  0.13849241  0.10213645    -0.20600
C701        C  0.93972884  0.11613421  0.12448481    -0.07100
C702        C  0.93208022  0.12802377  0.15303994     0.13800
C703        C  0.95077589  0.10717979  0.17828785    -0.23900
H704        H  0.89964909  0.16803914  0.18061462     0.15100
H705        H  0.92799154  0.12874862  0.08029881     0.15100
C706        C  0.88262363  0.19555445  0.08300690    -0.23900
H707        H  0.96663083  0.12942208  0.19181384     0.05300
H708        H  0.97342647  0.08422636  0.17191179     0.08500
H709        H  0.92667391  0.09271023  0.19116119     0.08500
H710        H  0.90835267  0.20965347  0.07161145     0.08500
H711        H  0.86091787  0.21930194  0.08955092     0.08500
H712        H  0.86694106  0.17522223  0.06800088     0.05300
C713        C  0.67099071  0.07436206  0.28397377    -0.20500
C714        C  0.67350848  0.11658467  0.28441895    -0.07100
C715        C  0.64072882  0.13827780  0.29615550     0.13800
C716        C  0.60798838  0.11740132  0.30852180    -0.20600
C717        C  0.60679805  0.07498131  0.31002664    -0.07100
C718        C  0.63854807  0.05339356  0.29659716     0.13800
C719        C  0.63913278  0.00834034  0.29571577    -0.23900
H720        H  0.69574604  0.05736448  0.27463504     0.15100
H721        H  0.58378549  0.13481414  0.31813707     0.15100
C722        C  0.64100131  0.18332848  0.29712815    -0.23900
H723        H  0.61122777  0.99716496  0.28535377     0.05300
H724        H  0.64135372  0.99626871  0.31766384     0.08500
H725        H  0.66543607  0.99660559  0.28341093     0.08500
H726        H  0.64226972  0.19537648  0.27511571     0.08500
H727        H  0.66766697  0.19390660  0.30928971     0.08500
H728        H  0.61339892  0.19558320  0.30762556     0.05300
C729        C  0.88905328  0.07612910  0.29206303    -0.20500
C730        C  0.88102988  0.05016178  0.31510914    -0.07100
C731        C  0.84105795  0.04866300  0.32568356     0.13800
C732        C  0.81102087  0.07381870  0.31382939    -0.20600
C733        C  0.81933983  0.10125995  0.29153858    -0.07100
C734        C  0.85914791  0.10145604  0.28019110     0.13800
C735        C  0.87060800  0.12780975  0.25546092    -0.23900
H736        H  0.91954658  0.07736405  0.28367940     0.15100
H737        H  0.78078143  0.07261740  0.32277711     0.15100
C738        C  0.83030338  0.02201469  0.35037778    -0.23900
H739        H  0.90244215  0.12276452  0.24858140     0.05300
H740        H  0.86760248  0.15975608  0.26165367     0.08500
H741        H  0.85081837  0.12132699  0.23695330     0.08500
H742        H  0.84866583  0.03018339  0.36927475     0.08500
H743        H  0.83630794  0.99031229  0.34456364     0.08500
H744        H  0.79785149  0.02480041  0.35635646     0.05300
C745        C  0.64171984  0.07469318  0.14481707    -0.20500
C746        C  0.62615407  0.05439043  0.12111393    -0.07100
C747        C  0.64185313  0.06329476  0.09366883     0.13800
C748        C  0.66719658  0.09607857  0.09004729    -0.20600
C749        C  0.68140869  0.11778685  0.11342032    -0.07100
C750        C  0.67061123  0.10519643  0.14132650     0.13800
C751        C  0.68909784  0.12326548  0.16767923    -0.23900
H752        H  0.62964927  0.06848922  0.16586345     0.15100
H753        H  0.67817513  0.10299720  0.06878699     0.15100
C754        C  0.62979086  0.04013716  0.06736398    -0.23900
H755        H  0.66494036  0.13453426  0.18212751     0.05300
H756        H  0.70956056  0.14855538  0.16276045     0.08500
H757        H  0.70668904  0.09998977  0.17911786     0.08500
H758        H  0.61299685  0.06004124  0.05258003     0.08500
H759        H  0.61054342  0.01398477  0.07251612     0.08500
H760        H  0.65734510  0.02869883  0.05636792     0.05300
C761        C  0.82605830  0.08596055  0.13419362    -0.20500
C762        C  0.81876586  0.09750897  0.10595024    -0.07100
C763        C  0.82813822  0.07028083  0.08375868     0.13800
C764        C  0.84237530  0.03162056  0.09047095    -0.20600
C765        C  0.84668661  0.01886095  0.11894182    -0.07100
C766        C  0.83902263  0.04711590  0.14111379     0.13800
C767        C  0.84274554  0.03665046  0.17228219    -0.23900
H768        H  0.81806023  0.10663652  0.15120430     0.15100
H769        H  0.84898742  0.01088641  0.07326006     0.15100
C770        C  0.82037172  0.08088487  0.05306767    -0.23900
H771        H  0.83284452  0.06167992  0.18635220     0.05300
H772        H  0.87473732  0.03008064  0.17764416     0.08500
H773        H  0.82350470  0.01041564  0.17725381     0.08500
H774        H  0.83872700  0.10731858  0.04707623     0.08500
H775        H  0.78779266  0.08776320  0.04995698     0.08500
H776        H  0.82841446  0.05592228  0.03844129     0.05300
C777        C  0.37552675  0.65059411  0.30559625    -0.20500
C778        C  0.40008892  0.67659791  0.29014995    -0.07100
C779        C  0.44237018  0.66804388  0.28860694     0.13800
C780        C  0.45890706  0.63521705  0.30372082    -0.20600
C781        C  0.43450026  0.60982414  0.32015685    -0.07100
C782        C  0.39168423  0.61768802  0.32055330     0.13800
C783        C  0.36201063  0.59276287  0.33743278    -0.23900
H784        H  0.34344060  0.65721926  0.30708769     0.15100
H785        H  0.49108986  0.62911208  0.30239761     0.15100
C786        C  0.47029400  0.69275803  0.27031181    -0.23900
H787        H  0.33088607  0.60542668  0.33694963     0.05300
H788        H  0.37130765  0.59144779  0.36013238     0.08500
H789        H  0.36006962  0.56219027  0.32824785     0.08500
H790        H  0.47310171  0.72349507  0.27896820     0.08500
H791        H  0.45849838  0.69399750  0.24820014     0.08500
H792        H  0.50125510  0.67973109  0.26939815     0.05300
C793        C  0.41514931  0.85687025  0.27692435    -0.20500
C794        C  0.41390304  0.82172024  0.29330540    -0.07100
C795        C  0.43723406  0.82070757  0.31890188     0.13800
C796        C  0.45943467  0.85468259  0.32758233    -0.20600
C797        C  0.45920145  0.89019653  0.31183117    -0.07100
C798        C  0.43734003  0.89084806  0.28577985     0.13800
C799        C  0.43738014  0.92757186  0.26713679    -0.23900
H800        H  0.39842057  0.85791663  0.25711821     0.15100
H801        H  0.47500323  0.85437732  0.34787783     0.15100
C802        C  0.43723939  0.78490526  0.33843583    -0.23900
H803        H  0.42086283  0.92240088  0.24688931     0.05300
H804        H  0.46900916  0.93577550  0.26170793     0.08500
H805        H  0.42251069  0.95309236  0.27820171     0.08500
H806        H  0.45261936  0.75917335  0.32797343     0.08500
H807        H  0.40568611  0.77685735  0.34419465     0.08500
H808        H  0.45373454  0.79093059  0.35856876     0.05300
C809        C  0.43369070  0.67119052  0.08430490    -0.20500
C810        C  0.40521489  0.68407562  0.10459948    -0.07100
C811        C  0.41430533  0.67842075  0.13382476     0.13800
C812        C  0.45140761  0.66114456  0.14190038    -0.20600
C813        C  0.48099663  0.64967084  0.12174060    -0.07100
C814        C  0.47140073  0.65463664  0.09232867     0.13800
C815        C  0.50075196  0.64369446  0.06898201    -0.23900
H816        H  0.42775581  0.67717159  0.06200167     0.15100
H817        H  0.45741102  0.65736951  0.16443252     0.15100
C818        C  0.38631771  0.69274853  0.15722742    -0.23900
H819        H  0.48852456  0.65042132  0.04749431     0.05300
H820        H  0.50698144  0.61121135  0.06983844     0.08500
H821        H  0.52921206  0.66083783  0.07150278     0.08500
H822        H  0.35673071  0.70329592  0.14897834     0.08500
H823        H  0.40080689  0.71762141  0.16908859     0.08500
H824        H  0.38043280  0.66799015  0.17234384     0.05300
C825        C  0.39794816  0.83675955  0.13002569    -0.20500
C826        C  0.39166875  0.82423435  0.10165653    -0.07100
C827        C  0.41495497  0.84159359  0.07965230     0.13800
C828        C  0.44224440  0.87190334  0.08639537    -0.20600
C829        C  0.44675916  0.88641519  0.11435097    -0.07100
C830        C  0.42474916  0.86820440  0.13656613     0.13800
C831        C  0.42859049  0.88272692  0.16682954    -0.23900
H832        H  0.38163293  0.82197996  0.14707302     0.15100
H833        H  0.45861532  0.88618827  0.06918616     0.15100
C834        C  0.41256702  0.82896375  0.04876124    -0.23900
H835        H  0.40883256  0.86560724  0.18157239     0.05300
H836        H  0.41988320  0.91477637  0.16826499     0.08500
H837        H  0.46040422  0.87922910  0.17393758     0.08500
H838        H  0.39128348  0.80422247  0.04471960     0.08500
H839        H  0.44291945  0.81894561  0.04133175     0.08500
H840        H  0.40289380  0.85489399  0.03566810     0.05300
C841        C  0.81645506  0.44637590  0.30942958    -0.20500
C842        C  0.82332066  0.41394444  0.29031700    -0.07100
C843        C  0.86410121  0.40545634  0.28272981     0.13800
C844        C  0.89579330  0.42681577  0.29594748    -0.20600
C845        C  0.88885410  0.45738720  0.31636370    -0.07100
C846        C  0.84832878  0.46800627  0.32233931     0.13800
C847        C  0.83837680  0.50084768  0.34328601    -0.23900
H848        H  0.78571105  0.45443982  0.31516588     0.15100
H849        H  0.92673802  0.41857443  0.29080978     0.15100
C850        C  0.87507506  0.37406770  0.26082149    -0.23900
H851        H  0.80520127  0.50505003  0.34584493     0.05300
H852        H  0.85128182  0.52952423  0.33567622     0.08500
H853        H  0.85114023  0.49348297  0.36449576     0.08500
H854        H  0.85985227  0.38084868  0.24032486     0.08500
H855        H  0.86606319  0.34401354  0.26847764     0.08500
H856        H  0.90816776  0.37305053  0.25658506     0.05300
C857        C  0.67358134  0.44485009  0.29105781    -0.20500
C858        C  0.67568174  0.40275576  0.28755782    -0.07100
C859        C  0.64181675  0.38011047  0.29606632     0.13800
C860        C  0.60846161  0.39955924  0.30902345    -0.20600
C861        C  0.60712192  0.44151181  0.31411494    -0.07100
C862        C  0.64008178  0.46438034  0.30402842     0.13800
C863        C  0.64063574  0.50921197  0.30703956    -0.23900
H864        H  0.69903116  0.46278850  0.28418006     0.15100
H865        H  0.58357448  0.38105181  0.31605359     0.15100
C866        C  0.64113986  0.33520825  0.29288673    -0.23900
H867        H  0.66823743  0.52237991  0.29734692     0.05300
H868        H  0.64014803  0.51766253  0.32993724     0.08500
H869        H  0.61395419  0.52231347  0.29612918     0.08500
H870        H  0.66678592  0.32171275  0.30473435     0.08500
H871        H  0.64333990  0.32692560  0.26999477     0.08500
H872        H  0.61272474  0.32212887  0.30139156     0.05300
C873        C  0.84829643  0.40249006  0.08390224    -0.20500
C874        C  0.82971200  0.38330394  0.10683350    -0.07100
C875        C  0.83948318  0.39539566  0.13505442     0.13800
C876        C  0.87005538  0.42395685  0.13945115    -0.20600
C877        C  0.88953747  0.44203874  0.11630813    -0.07100
C878        C  0.87675456  0.43257280  0.08825364     0.13800
C879        C  0.89291945  0.45363749  0.06224109    -0.23900
H880        H  0.83890278  0.39553477  0.06231067     0.15100
H881        H  0.88006655  0.43052796  0.16093922     0.15100
C882        C  0.81861763  0.37854185  0.16094673    -0.23900
H883        H  0.86734599  0.46611995  0.04976817     0.05300
H884        H  0.90981801  0.43191790  0.04868720     0.08500
H885        H  0.91302149  0.47899687  0.06768912     0.08500
H886        H  0.79784389  0.35363801  0.15569754     0.08500
H887        H  0.80105222  0.40260435  0.17177048     0.08500
H888        H  0.84157973  0.36709034  0.17608073     0.05300
C889        C  0.67642868  0.42133580  0.08495611    -0.20500
C890        C  0.68836077  0.39370427  0.10578272    -0.07100
C891        C  0.68188919  0.40391640  0.13481537     0.13800
C892        C  0.66460931  0.44103748  0.14219289    -0.20600
C893        C  0.65390468  0.46962844  0.12154059    -0.07100
C894        C  0.65991420  0.45915931  0.09229249     0.13800
C895        C  0.65054288  0.48782131  0.06845392    -0.23900
H896        H  0.68329364  0.41466182  0.06281854     0.15100
H897        H  0.65994491  0.44770396  0.16459841     0.15100
C898        C  0.69533998  0.37703314  0.15878238    -0.23900
H899        H  0.65791237  0.47488150  0.04720469     0.05300
H900        H  0.66863053  0.51549040  0.07106453     0.08500
H901        H  0.61789933  0.49540315  0.06848363     0.08500
H902        H  0.72021473  0.39159158  0.17073351     0.08500
H903        H  0.70600456  0.34735624  0.15109700     0.08500
H904        H  0.66973098  0.37204596  0.17368230     0.05300
C905        C  0.05372528  0.82305908  0.28663169    -0.20500
C906        C  0.09434866  0.81713805  0.29506970    -0.07100
C907        C  0.10821588  0.83658455  0.31975351     0.13800
C908        C  0.08176148  0.86158233  0.33505645    -0.20600
C909        C  0.04207924  0.87017795  0.32565633    -0.07100
C910        C  0.02780084  0.85025201  0.30118201     0.13800
C911        C  0.98603798  0.85852547  0.29003685    -0.23900
H912        H  0.04247335  0.80675085  0.26832330     0.15100
H913        H  0.09315621  0.87684635  0.35377754     0.15100
C914        C  0.15092313  0.83081261  0.33020895    -0.23900
H915        H  0.97960830  0.84063737  0.27059463     0.05300
H916        H  0.98301564  0.89069971  0.28458663     0.08500
H917        H  0.96324967  0.85083302  0.30657047     0.08500
H918        H  0.17266006  0.84055358  0.31353969     0.08500
H919        H  0.15635116  0.79880120  0.33522822     0.08500
H920        H  0.15694719  0.84871456  0.34968967     0.05300
C921        C  0.06278397  0.67545841  0.28898729    -0.20500
C922        C  0.10532063  0.67492149  0.28456057    -0.07100
C923        C  0.12652107  0.63985445  0.29207939     0.13800
C924        C  0.10560007  0.60849412  0.30584567    -0.20600
C925        C  0.06389129  0.61113118  0.31327146    -0.07100
C926        C  0.04211012  0.64485190  0.30360641     0.13800
C927        C  0.99750615  0.64991339  0.30946205    -0.23900
H928        H  0.04554287  0.70146012  0.28239990     0.15100
H929        H  0.12281255  0.58227503  0.31198250     0.15100
C930        C  0.17137747  0.63588725  0.28700894    -0.23900
H931        H  0.98542744  0.67812187  0.30029950     0.05300
H932        H  0.99193749  0.65092289  0.33281175     0.08500
H933        H  0.98055324  0.62471162  0.29980953     0.08500
H934        H  0.18769650  0.65935675  0.29911434     0.08500
H935        H  0.17809026  0.63898579  0.26391956     0.08500
H936        H  0.18309765  0.60632442  0.29399726     0.05300
C937        C  0.99895040  0.80781898  0.07150514    -0.20500
C938        C  0.00561634  0.84848683  0.07580307    -0.07100
C939        C  0.04195121  0.86551851  0.06474810     0.13800
C940        C  0.07400282  0.84039828  0.05574989    -0.20600
C941        C  0.06924162  0.79893693  0.05538224    -0.07100
C942        C  0.02942874  0.78343886  0.05965953     0.13800
C943        C  0.01890367  0.74059465  0.05311549    -0.23900
H944        H  0.97021175  0.79489048  0.07771458     0.15100
H945        H  0.10351905  0.85307739  0.05140644     0.15100
C946        C  0.04911501  0.90987050  0.06384360    -0.23900
H947        H  0.99193810  0.73970825  0.03909158     0.05300
H948        H  0.01204783  0.72432582  0.07316175     0.08500
H949        H  0.04379023  0.72515668  0.04156526     0.08500
H950        H  0.05336641  0.91932942  0.04137331     0.08500
H951        H  0.02372350  0.92733330  0.07307750     0.08500
H952        H  0.07711171  0.91708139  0.07568114     0.05300
C953        C  0.09957565  0.67765652  0.12774091    -0.20500
C954        C  0.10733473  0.67896919  0.09832247    -0.07100
C955        C  0.08539945  0.65379487  0.07985683     0.13800
C956        C  0.05535004  0.62909228  0.09102769    -0.20600
C957        C  0.04948703  0.62534099  0.12052908    -0.07100
C958        C  0.07227132  0.64967592  0.13913960     0.13800
C959        C  0.06886115  0.64481665  0.17095293    -0.23900
H960        H  0.11513495  0.69827909  0.14175652     0.15100
H961        H  0.03972965  0.60888314  0.07671328     0.15100
C962        C  0.09346911  0.65192890  0.04815936    -0.23900
H963        H  0.08867259  0.66615233  0.18247683     0.05300
H964        H  0.07799762  0.61403651  0.17711797     0.08500
H965        H  0.03709935  0.65021907  0.17778730     0.08500
H966        H  0.11663372  0.67338203  0.04077633     0.08500
H967        H  0.06515298  0.65799894  0.03628724     0.08500
H968        H  0.10480151  0.62161704  0.04256731     0.05300
C969        C  0.29067549  0.75357721  0.55568684     0.86300
C970        C  0.29197426  0.78821377  0.53411689    -0.53900
C971        C  0.25651298  0.77914863  0.00737174     0.09200
C972        C  0.22704276  0.74340836  0.01271904     0.20200
C973        C  0.24869393  0.75718618  0.56993930    -0.54700
C974        C  0.21667267  0.75792239  0.55142511     0.09300
C975        C  0.28778181  0.71578765  0.53698704    -0.54200
C976        C  0.25424818  0.70463719  0.01177124     0.09900
H977        H  0.31193157  0.80193564  0.02521296     0.14400
H978        H  0.20093470  0.74243075  0.99791686     0.00100
H979        H  0.24462802  0.75816768  0.59292706     0.14700
H980        H  0.30782812  0.68222254  0.03253698     0.14500
C981        C  0.25873136  0.79496343  0.70882673     0.86300
C982        C  0.29496564  0.79156144  0.72898032    -0.53900
C983        C  0.29646418  0.75765079  0.74544840     0.09200
C984        C  0.25859415  0.72957382  0.74000570     0.20200
C985        C  0.25943135  0.75592159  0.69133168    -0.54700
C986        C  0.25874987  0.72145593  0.70709394     0.09300
C987        C  0.22153436  0.79074018  0.72852315    -0.54200
C988        C  0.22005361  0.75676330  0.74479538     0.09900
H989        H  0.31828133  0.81434514  0.72963491     0.14400
H990        H  0.25851500  0.70186454  0.75298695     0.00100
H991        H  0.25919121  0.75563071  0.66817070     0.23500
H992        H  0.19721849  0.81267051  0.72884061     0.14500
C993        C  0.79045147  0.24284314  0.01071546     0.86300
C994        C  0.78902931  0.21754389  0.52810742    -0.53900
C995        C  0.75684262  0.21803882  0.54637506     0.09200
C996        C  0.72742686  0.25399129  0.54094524     0.20200
C997        C  0.74869457  0.24077160  0.99611106    -0.54700
C998        C  0.71598836  0.24309163  0.01429196     0.09300
C999        C  0.78765905  0.28955594  0.52444443    -0.54200
C1000       C  0.75529013  0.29157568  0.54301965     0.09900
H1001       H  0.81263834  0.19488395  0.52928390     0.14400
H1002       H  0.70118729  0.25490718  0.55580707     0.00100
H1003       H  0.74534372  0.23760336  0.97319806     0.14700
H1004       H  0.81088920  0.31242003  0.52381573     0.14500
C1005       C  0.78986386  0.26244167  0.69982084     0.86300
C1006       C  0.79020489  0.22630688  0.72022548    -0.53900
C1007       C  0.75781782  0.22360674  0.73855259     0.09200
C1008       C  0.72800604  0.26039829  0.73524768     0.20200
C1009       C  0.74837736  0.26040016  0.68506274    -0.54700
C1010       C  0.71566896  0.25930164  0.70306562     0.09300
C1011       C  0.78703302  0.29893719  0.71952946    -0.54200
C1012       C  0.75513636  0.29917621  0.73832893     0.09900
H1013       H  0.81351878  0.20334223  0.71908539     0.14400
H1014       H  0.70175739  0.25968221  0.75008191     0.00100
H1015       H  0.74517331  0.26007623  0.66201895     0.14700
H1016       H  0.80872314  0.32320522  0.71843538     0.14500
C1017       C  0.12377138  0.72449881  0.58944457     0.80000
N1018       N  0.09777427  0.75386106  0.58321419    -0.78300
C1019       C  0.10765203  0.78426433  0.56597824     0.82500
N1020       N  0.14632896  0.78649922  0.55532122    -0.78200
C1021       C  0.17384015  0.75687368  0.56189013     0.82600
N1022       N  0.16196280  0.72544095  0.57853127    -0.79900
C1023       C  0.13305533  0.70479117  0.78283495     0.80000
N1024       N  0.16957998  0.71041565  0.76914076    -0.78300
C1025       C  0.18225224  0.74857983  0.76273018     0.82500
N1026       N  0.15774987  0.78031489  0.77044155    -0.78200
C1027       C  0.12195673  0.77446981  0.78454747     0.82600
N1028       N  0.11039158  0.73684928  0.79037076    -0.79900
C1029       C  0.78842528  0.36803649  0.59652657     0.80000
N1030       N  0.78857073  0.33952021  0.57568887    -0.78300
C1031       C  0.75307452  0.32393190  0.56566612     0.82500
N1032       N  0.71705132  0.34013313  0.57521481    -0.78200
C1033       C  0.71755800  0.36932908  0.59598975     0.82600
N1034       N  0.75307107  0.38215739  0.60625716    -0.79900
C1035       C  0.78190702  0.39005387  0.78232771     0.80000
N1036       N  0.78433023  0.35608954  0.76602488    -0.78300
C1037       C  0.75028431  0.33489976  0.75847094     0.82500
N1038       N  0.71309490  0.34858358  0.76774136    -0.78200
C1039       C  0.71080968  0.38288223  0.78403976     0.82600
N1040       N  0.74504125  0.40254562  0.79077026    -0.79900
C1041       C  0.37222810  0.78845723  0.60671174     0.80000
N1042       N  0.38765382  0.75348690  0.61548671    -0.78300
C1043       C  0.37422304  0.71838201  0.60535036     0.82500
N1044       N  0.34381275  0.71802812  0.58561606    -0.78200
C1045       C  0.32590051  0.75328911  0.57728358     0.82600
N1046       N  0.34121728  0.78862856  0.58748118    -0.79900
C1047       C  0.38920664  0.78054046  0.78989716     0.80000
N1048       N  0.35548003  0.78420152  0.77314637    -0.78300
C1049       C  0.33259634  0.75146630  0.76543253     0.82500
N1050       N  0.34462725  0.71421303  0.77473052    -0.78200
C1051       C  0.37866240  0.71042475  0.79141362     0.82600
N1052       N  0.39982798  0.74355598  0.79845821    -0.79900
C1053       C  0.71831912  0.14411416  0.60019742     0.80000
N1054       N  0.75332891  0.12805216  0.60891644    -0.78300
C1055       C  0.78893388  0.13925081  0.59791137     0.82500
N1056       N  0.78973193  0.16844797  0.57779728    -0.78200
C1057       C  0.75469894  0.18719424  0.56953956     0.82600
N1058       N  0.71855513  0.17358402  0.57994868    -0.79900
C1059       C  0.71023764  0.13635112  0.77795183     0.80000
N1060       N  0.71442656  0.17259876  0.76445148    -0.78300
C1061       C  0.75226603  0.18588622  0.75664553     0.82500
N1062       N  0.78545383  0.16231610  0.76311991    -0.78200
C1063       C  0.78119476  0.12650266  0.77708809     0.82600
N1064       N  0.74350845  0.11444258  0.78386970    -0.79900
C1065       C  0.86888642  0.22664088  0.64734082     0.80000
N1066       N  0.88734242  0.26071358  0.64009923    -0.78300
C1067       C  0.87655012  0.29604785  0.65153671     0.82500
N1068       N  0.84602400  0.29732339  0.67151060    -0.78200
C1069       C  0.82562594  0.26279227  0.67856876     0.82600
N1070       N  0.83813944  0.22740958  0.66673586    -0.79900
C1071       C  0.87526515  0.19450660  0.96843296     0.80000
N1072       N  0.89681951  0.22653178  0.96028622    -0.78300
C1073       C  0.88491444  0.26426418  0.96649160     0.82500
N1074       N  0.85028060  0.27013262  0.98222044    -0.78200
C1075       C  0.82750979  0.23790520  0.99077269     0.82600
N1076       N  0.84012370  0.20005117  0.98326548    -0.79900
Zn1077     Zn  0.93649788  0.01267789  0.65110598     1.49700
Zn1078     Zn  0.93299603  0.96403758  0.59543357     1.49400
Zn1079     Zn  0.01020883  0.01653212  0.60587808     1.49100
Zn1080     Zn  0.98423445  0.94316199  0.64873442     1.49500
O1081       O  0.96777578  0.98547060  0.62466797    -1.84300
O1082       O  0.88334522  0.98663815  0.65006117    -0.75000
O1083       O  0.93755957  0.99679754  0.56057693    -0.74800
O1084       O  0.99324034  0.07588560  0.61425892    -0.74300
O1085       O  0.87342675  0.96778230  0.60632387    -0.75000
O1086       O  0.93457118  0.06569794  0.63735836    -0.74600
O1087       O  0.00413062  0.00423066  0.56178300    -0.75200
O1088       O  0.04004473  0.94948353  0.64819299    -0.74500
O1089       O  0.96025598  0.91255300  0.58415510    -0.75300
O1090       O  0.06754361  0.99716140  0.62270356    -0.74700
O1091       O  0.98493617  0.89113772  0.62577863    -0.75200
O1092       O  0.98091229  0.95275587  0.69278542    -0.75100
O1093       O  0.96238897  0.01579156  0.68883371    -0.74900
C1094       C  0.86712980  0.99322746  0.62612313     0.76900
C1095       C  0.97116240  0.99954521  0.54768580     0.77400
C1096       C  0.96020784  0.08856765  0.62584569     0.76400
C1097       C  0.07097871  0.96696434  0.63952236     0.76800
C1098       C  0.98286364  0.88917020  0.59848353     0.77900
C1099       C  0.97875007  0.98822812  0.70327266     0.76900
Zn1100     Zn  0.01645840  0.99648260  0.90314829     1.49700
Zn1101     Zn  0.99086656  0.05045631  0.85145559     1.49400
Zn1102     Zn  0.05507866  0.97749545  0.84712123     1.49100
Zn1103     Zn  0.95808769  0.96059196  0.85704056     1.49500
O1104       O  0.00462602  0.99686514  0.86276230    -1.84300
O1105       O  0.98458484  0.04132241  0.92313871    -0.75000
O1106       O  0.03607005  0.06961056  0.82580654    -0.74800
O1107       O  0.09053181  0.95270490  0.87815037    -0.74300
O1108       O  0.97331783  0.08221719  0.88648740    -0.75000
O1109       O  0.07367236  0.98755547  0.91638356    -0.74600
O1110       O  0.07910477  0.02016654  0.82212887    -0.75200
O1111       O  0.98549298  0.90756725  0.83840340    -0.74500
O1112       O  0.94144715  0.05130605  0.82791369    -0.75300
O1113       O  0.04434768  0.93198997  0.82254109    -0.74700
O1114       O  0.91389473  0.99099610  0.83137748    -0.75200
O1115       O  0.93367336  0.95412343  0.89903133    -0.75100
O1116       O  0.99503760  0.94456753  0.91418606    -0.74900
C1117       C  0.96895922  0.07316928  0.91279838     0.76900
C1118       C  0.05266507  0.04250259  0.81043841     0.77400
C1119       C  0.09431742  0.95964058  0.90475740     0.76400
C1120       C  0.01939742  0.90352436  0.82469224     0.76800
C1121       C  0.91284753  0.02744977  0.82240103     0.77900
C1122       C  0.95796672  0.94746557  0.91967025     0.76900
C1123       C  0.22157215  0.88858989  0.67133304     0.80000
N1124       N  0.22302562  0.85479874  0.68761934    -0.78300
C1125       C  0.25823014  0.83332969  0.69042293     0.82500
N1126       N  0.29237902  0.84663016  0.67653200    -0.78200
C1127       C  0.29010996  0.88006073  0.65970530     0.82600
N1128       N  0.25494763  0.89997512  0.65740349    -0.79900
C1129       C  0.20787936  0.85822639  0.96148632     0.80000
N1130       N  0.24082507  0.87808977  0.95246344    -0.78300
C1131       C  0.27838015  0.86713447  0.96010016     0.82500
N1132       N  0.28340129  0.83481965  0.97750729    -0.78200
C1133       C  0.25044696  0.81324093  0.98666177     0.82600
N1134       N  0.21233057  0.82535379  0.97862684    -0.79900
Zn1135     Zn  0.51040027  0.05903431  0.58751850     1.49700
Zn1136     Zn  0.51481458  0.99809096  0.64386414     1.49400
Zn1137     Zn  0.44242436  0.06178584  0.63460766     1.49100
Zn1138     Zn  0.45411504  0.99242521  0.58909904     1.49500
O1139       O  0.48140100  0.02710421  0.61497639    -1.84300
O1140       O  0.56350561  0.05646256  0.60093460    -0.75000
O1141       O  0.50042158  0.01776910  0.68481626    -0.74800
O1142       O  0.46233595  0.11931152  0.63210832    -0.74300
O1143       O  0.57536270  0.01404561  0.63642068    -0.75000
O1144       O  0.49877964  0.11702293  0.59279847    -0.74600
O1145       O  0.44715336  0.05621941  0.67632402    -0.75200
O1146       O  0.39627587  0.00714496  0.58833895    -0.74500
O1147       O  0.49934632  0.93679128  0.64155749    -0.75300
O1148       O  0.38551372  0.03978631  0.62837917    -0.74700
O1149       O  0.45491777  0.94113211  0.60611583    -0.75200
O1150       O  0.48046690  0.98447746  0.55054483    -0.75100
O1151       O  0.51779577  0.03825897  0.54658568    -0.74900
C1152       C  0.58732884  0.04007960  0.61820292     0.76900
C1153       C  0.47155542  0.04025145  0.69368818     0.77400
C1154       C  0.49371536  0.12993067  0.61816666     0.76400
C1155       C  0.37994167  0.00882251  0.61290206     0.76800
C1156       C  0.47262291  0.92115573  0.62515596     0.77900
C1157       C  0.50569183  0.00505483  0.53639165     0.76900
Zn1158     Zn  0.43574336  0.00110841  0.85515360     1.49700
Zn1159     Zn  0.53320021  0.98175332  0.86213909     1.49400
Zn1160     Zn  0.49677143  0.07147894  0.86333909     1.49100
Zn1161     Zn  0.47457799  0.01190728  0.91224122     1.49500
O1162       O  0.48530374  0.01686303  0.87212383    -1.84300
O1163       O  0.44486852  0.94946097  0.83680535    -0.75000
O1164       O  0.57403041  0.01484663  0.83606796    -0.74800
O1165       O  0.46254250  0.08970839  0.82996900    -0.74300
O1166       O  0.50874265  0.92943110  0.84112227    -0.75000
O1167       O  0.42471476  0.03568694  0.82186342    -0.74600
O1168       O  0.54934396  0.07548352  0.84376941    -0.75200
O1169       O  0.50500899  0.05775961  0.93337493    -0.74500
O1170       O  0.56143486  0.97257161  0.90245617    -0.75300
O1171       O  0.50771476  0.10414867  0.89928596    -0.74700
O1172       O  0.50069255  0.95990338  0.91724023    -0.75200
O1173       O  0.41815643  0.99589075  0.92508873    -0.75100
O1174       O  0.39111178  0.98625209  0.88265284    -0.74900
C1175       C  0.47224369  0.92371860  0.83217362     0.76900
C1176       C  0.57614017  0.05299891  0.83279568     0.77400
C1177       C  0.44226792  0.06721540  0.81320951     0.76400
C1178       C  0.51677313  0.09206395  0.92435944     0.76800
C1179       C  0.53733335  0.96478735  0.92304385     0.77900
C1180       C  0.39040217  0.98102900  0.90953546     0.76900
C1181       C  0.61853366  0.29261134  0.66960089     0.80000
N1182       N  0.65499502  0.29346589  0.68323436    -0.78300
C1183       C  0.67325373  0.25834290  0.69131870     0.82500
N1184       N  0.65544883  0.22260984  0.68386618    -0.78200
C1185       C  0.61915853  0.22278155  0.66974325     0.82600
N1186       N  0.60154225  0.25759455  0.66322922    -0.79900
C1187       C  0.61742924  0.20274561  0.98624800     0.80000
N1188       N  0.65521843  0.20468727  0.99812482    -0.78300
C1189       C  0.67296274  0.24115198  0.00328610     0.82500
N1190       N  0.65349376  0.27534146  0.99429517    -0.78200
C1191       C  0.61581684  0.27307336  0.98221451     0.82600
N1192       N  0.59868540  0.23690290  0.97849963    -0.79900
Zn1193     Zn  0.05882034  0.52617076  0.59843724     1.49700
Zn1194     Zn  0.00412199  0.45854229  0.59071443     1.49400
Zn1195     Zn  0.06471759  0.45649653  0.64210394     1.49100
Zn1196     Zn  0.98909820  0.52033170  0.64390397     1.49500
O1197       O  0.02776989  0.48998202  0.61981358    -1.84300
O1198       O  0.03273104  0.54169439  0.55965088    -0.75000
O1199       O  0.02090240  0.40199654  0.59628003    -0.74800
O1200       O  0.12379860  0.47270442  0.63627323    -0.74300
O1201       O  0.00422954  0.48311513  0.55116039    -0.75000
O1202       O  0.11357104  0.50344517  0.59605852    -0.74600
O1203       O  0.04269162  0.39997569  0.64043796    -0.75200
O1204       O  0.00349688  0.51010201  0.68660794    -0.74500
O1205       O  0.94820648  0.45614390  0.59968325    -0.75300
O1206       O  0.05704841  0.46992131  0.68251630    -0.74700
O1207       O  0.93097197  0.49772769  0.63487823    -0.75200
O1208       O  0.99900583  0.58110274  0.63395322    -0.75100
O1209       O  0.06380811  0.56931807  0.62563638    -0.74900
C1210       C  0.01227793  0.51877009  0.54329621     0.76900
C1211       C  0.01700867  0.38925733  0.62177558     0.77400
C1212       C  0.12990233  0.50310253  0.62052228     0.76400
C1213       C  0.03225244  0.48963082  0.69777537     0.76800
C1214       C  0.92190912  0.47119213  0.61609139     0.77900
C1215       C  0.03502547  0.59351921  0.62891472     0.76900
Zn1216     Zn  0.01209140  0.46841717  0.91339321     1.49700
Zn1217     Zn  0.97875798  0.52810063  0.86700969     1.49400
Zn1218     Zn  0.06894795  0.49218231  0.86296849     1.49100
Zn1219     Zn  0.99699780  0.43113248  0.85663716     1.49500
O1220       O  0.01435508  0.48024725  0.87331386    -1.84300
O1221       O  0.95872271  0.48997844  0.92253770    -0.75000
O1222       O  0.01139519  0.57080044  0.84161180    -0.74800
O1223       O  0.10188095  0.50675836  0.89799747    -0.74300
O1224       O  0.97108161  0.55102814  0.90980026    -0.75000
O1225       O  0.05631479  0.50080971  0.93306330    -0.74600
O1226       O  0.07189314  0.54241608  0.84247293    -0.75200
O1227       O  0.03305100  0.41662449  0.82404153    -0.74500
O1228       O  0.92607108  0.50489966  0.84526588    -0.75300
O1229       O  0.08633190  0.45499338  0.83118567    -0.74700
O1230       O  0.94580365  0.44175727  0.83813779    -0.75200
O1231       O  0.98266512  0.38826387  0.88531205    -0.75100
O1232       O  0.00434659  0.41156521  0.92660673    -0.74900
C1233       C  0.96353579  0.52583815  0.92966749     0.76900
C1234       C  0.04926098  0.57093378  0.83490847     0.77400
C1235       C  0.08990578  0.51413972  0.92347052     0.76400
C1236       C  0.05950932  0.44072647  0.81446252     0.76800
C1237       C  0.92018958  0.46954586  0.83473813     0.77900
C1238       C  0.98601610  0.38489184  0.91223583     0.76900
C1239       C  0.28757373  0.62971274  0.66549171     0.80000
N1240       N  0.25117641  0.61464723  0.65939390    -0.78300
C1241       C  0.21689038  0.63147991  0.66916274     0.82500
N1242       N  0.21879509  0.66524503  0.68580040    -0.78200
C1243       C  0.25592827  0.68127572  0.69254417     0.82600
N1244       N  0.29038796  0.66315390  0.68221843    -0.79900
C1245       C  0.27488064  0.60745257  0.97357406     0.80000
N1246       N  0.23707752  0.59400545  0.96954545    -0.78300
C1247       C  0.20426549  0.61568820  0.97711146     0.82500
N1248       N  0.20907819  0.65261819  0.98949536    -0.78200
C1249       C  0.24738186  0.66683941  0.99453347     0.82600
N1250       N  0.28019183  0.64394013  0.98627147    -0.79900
Zn1251     Zn  0.55448029  0.48265400  0.64633025     1.49700
Zn1252     Zn  0.56124325  0.55608905  0.60568557     1.49400
Zn1253     Zn  0.48900484  0.48957757  0.59957255     1.49100
Zn1254     Zn  0.49746898  0.54727605  0.65541121     1.49500
O1255       O  0.52405658  0.51990723  0.62538517    -1.84300
O1256       O  0.60719737  0.50740393  0.65308539    -0.75000
O1257       O  0.55510608  0.54827077  0.56376424    -0.74800
O1258       O  0.49911544  0.42926419  0.61039855    -0.74300
O1259       O  0.61987063  0.53755400  0.61274444    -0.75000
O1260       O  0.56362136  0.44197897  0.61751774    -0.74600
O1261       O  0.50850763  0.50092977  0.55776393    -0.75200
O1262       O  0.44184826  0.54930956  0.64470740    -0.74500
O1263       O  0.53898100  0.61221555  0.61170987    -0.75300
O1264       O  0.42942978  0.51041981  0.60701960    -0.74700
O1265       O  0.51490243  0.60361689  0.65498139    -0.75200
O1266       O  0.49636367  0.51952280  0.69347756    -0.75100
O1267       O  0.52509463  0.46186299  0.68248227    -0.74900
C1268       C  0.62682384  0.50866158  0.62976333     0.76900
C1269       C  0.53459889  0.52556049  0.54764560     0.77400
C1270       C  0.53526545  0.41725720  0.61549403     0.76400
C1271       C  0.41770410  0.53489761  0.62661964     0.76800
C1272       C  0.51245577  0.62031092  0.63069086     0.77900
C1273       C  0.50334784  0.48303792  0.69940628     0.76900
Zn1274     Zn  0.42715447  0.48612722  0.85756634     1.49700
Zn1275     Zn  0.46324711  0.45618951  0.91469201     1.49400
Zn1276     Zn  0.49668534  0.42197389  0.85955910     1.49100
Zn1277     Zn  0.51782568  0.51653674  0.87287894     1.49500
O1278       O  0.47740296  0.47182277  0.87592959    -1.84300
O1279       O  0.38359684  0.49986606  0.88732026    -0.75000
O1280       O  0.48762755  0.40344527  0.92930080    -0.74800
O1281       O  0.46574286  0.40498703  0.82477282    -0.74300
O1282       O  0.40794258  0.47550796  0.92792896    -0.75000
O1283       O  0.41961952  0.45309651  0.82158618    -0.74600
O1284       O  0.51513733  0.38157101  0.88928021    -0.75200
O1285       O  0.56787170  0.49458569  0.84888740    -0.74500
O1286       O  0.49567902  0.48989542  0.93763235    -0.75300
O1287       O  0.54784471  0.43214116  0.84097641    -0.74700
O1288       O  0.53594959  0.53211140  0.91476236    -0.75200
O1289       O  0.48978111  0.56596074  0.85222121    -0.75100
O1290       O  0.43106262  0.53925403  0.83973985    -0.74900
C1291       C  0.38237147  0.49693471  0.91449208     0.76900
C1292       C  0.51195624  0.37975369  0.91632764     0.77400
C1293       C  0.44417194  0.42837257  0.80968422     0.76400
C1294       C  0.57338811  0.45967353  0.83787111     0.76800
C1295       C  0.52243133  0.51655285  0.93789182     0.77900
C1296       C  0.45521317  0.56846859  0.83980133     0.76900
C1297       C  0.50157509  0.43071918  0.73813275    -0.20500
C1298       C  0.48476666  0.46536738  0.72591995    -0.07100
C1299       C  0.44949602  0.48197250  0.73895110     0.13800
C1300       C  0.43422806  0.46550294  0.76432755    -0.20600
C1301       C  0.45350462  0.43359382  0.77835282    -0.07100
C1302       C  0.48679278  0.41475836  0.76409915     0.13800
C1303       C  0.50776942  0.37837433  0.77604728    -0.23900
H1304       H  0.52769649  0.41703070  0.72797108     0.15100
H1305       H  0.40830825  0.47982500  0.77432108     0.15100
C1306       C  0.42739161  0.51750139  0.72668122    -0.23900
H1307       H  0.53067460  0.36604518  0.76097648     0.05300
H1308       H  0.48525322  0.35454734  0.78029917     0.08500
H1309       H  0.52405251  0.38611060  0.79589543     0.08500
H1310       H  0.41954424  0.51124115  0.70420163     0.08500
H1311       H  0.44651334  0.54463573  0.72805609     0.08500
H1312       H  0.39883183  0.52421896  0.73835026     0.05300
C1313       C  0.53469519  0.56568963  0.50293187    -0.20500
C1314       C  0.54213611  0.52887579  0.51647990    -0.07100
C1315       C  0.55967876  0.49739322  0.50048816     0.13800
C1316       C  0.54862111  0.49160578  0.98271531    -0.20600
C1317       C  0.53719065  0.52555474  0.96686787    -0.07100
C1318       C  0.52439907  0.56019532  0.98164877     0.13800
C1319       C  0.51114779  0.59695442  0.96568941    -0.23900
H1320       H  0.52258647  0.59038751  0.51538585     0.15100
H1321       H  0.55737264  0.46456448  0.97135390     0.15100
C1322       C  0.56734271  0.45689778  0.51352698    -0.23900
H1323       H  0.50189641  0.62144236  0.98043918     0.05300
H1324       H  0.48495794  0.58977269  0.95186018     0.08500
H1325       H  0.53649115  0.60786813  0.95223528     0.08500
H1326       H  0.53835415  0.44399218  0.52110852     0.08500
H1327       H  0.58823830  0.45950275  0.53175855     0.08500
H1328       H  0.58093789  0.43561072  0.49792150     0.05300
C1329       C  0.30682818  0.54017669  0.96890088    -0.20500
C1330       C  0.30835442  0.58141547  0.96257514    -0.07100
C1331       C  0.33502462  0.59428356  0.94091796     0.13800
C1332       C  0.35763360  0.56570484  0.92528125    -0.20600
C1333       C  0.35510763  0.52438355  0.93099867    -0.07100
C1334       C  0.33031760  0.51171006  0.95379705     0.13800
C1335       C  0.32723291  0.46811863  0.96143946    -0.23900
H1336       H  0.28596964  0.53001454  0.98521907     0.15100
H1337       H  0.37775105  0.57576318  0.90848696     0.15100
C1338       C  0.33853031  0.63792345  0.93348304    -0.23900
H1339       H  0.30523498  0.46317465  0.97903714     0.05300
H1340       H  0.35712537  0.45673173  0.96851025     0.08500
H1341       H  0.31709871  0.45069723  0.94260389     0.08500
H1342       H  0.34904285  0.65497139  0.95238740     0.08500
H1343       H  0.30866355  0.64973611  0.92666327     0.08500
H1344       H  0.36051911  0.64285489  0.91587323     0.05300
C1345       C  0.33397123  0.60884979  0.62645953    -0.20500
C1346       C  0.32229657  0.60586105  0.65527779    -0.07100
C1347       C  0.33428446  0.57185101  0.67086632     0.13800
C1348       C  0.36017429  0.54360558  0.65818624    -0.20600
C1349       C  0.37578941  0.54897746  0.63058229    -0.07100
C1350       C  0.36079003  0.58078424  0.61398623     0.13800
C1351       C  0.37314087  0.58477693  0.58322263    -0.23900
H1352       H  0.32171800  0.63291624  0.61364053     0.15100
H1353       H  0.37098595  0.51865390  0.67069946     0.15100
C1354       C  0.31970130  0.56534409  0.70099387    -0.23900
H1355       H  0.40647682  0.58720892  0.58137648     0.05300
H1356       H  0.35920985  0.61155563  0.57322816     0.08500
H1357       H  0.36324642  0.55789640  0.57121297     0.08500
H1358       H  0.28621534  0.56285222  0.70139608     0.08500
H1359       H  0.32895348  0.59095150  0.71455715     0.08500
H1360       H  0.33247552  0.53753705  0.71029809     0.05300
C1361       C  0.11828573  0.58192527  0.93141319    -0.20500
C1362       C  0.11388920  0.54235015  0.94110032    -0.07100
C1363       C  0.13265272  0.53101403  0.96674251     0.13800
C1364       C  0.15785832  0.55851354  0.98090367    -0.20600
C1365       C  0.16485030  0.59718787  0.97004568    -0.07100
C1366       C  0.14349275  0.60942548  0.94557683     0.13800
C1367       C  0.14950649  0.65056672  0.93331359    -0.23900
H1368       H  0.10300986  0.59092496  0.91203743     0.15100
H1369       H  0.17487887  0.54867481  0.99932440     0.15100
C1370       C  0.12786067  0.48933831  0.97829492    -0.23900
H1371       H  0.13060222  0.65542026  0.91409925     0.05300
H1372       H  0.18168298  0.65469318  0.92712468     0.08500
H1373       H  0.14101295  0.67347169  0.94948966     0.08500
H1374       H  0.13891086  0.46719163  0.96233932     0.08500
H1375       H  0.09546760  0.48355128  0.98302446     0.08500
H1376       H  0.14523386  0.48507413  0.99827774     0.05300
C1377       C  0.14947014  0.54394029  0.66350254    -0.20500
C1378       C  0.14639112  0.54104924  0.63352246    -0.07100
C1379       C  0.15648921  0.57545070  0.61719878     0.13800
C1380       C  0.17246147  0.60947872  0.63091597    -0.20600
C1381       C  0.17964260  0.61038662  0.66041780    -0.07100
C1382       C  0.16592494  0.57797322  0.67698359     0.13800
C1383       C  0.17111632  0.57838371  0.70887503    -0.23900
H1384       H  0.14004505  0.51897262  0.67657648     0.15100
H1385       H  0.18356742  0.63406370  0.61807568     0.15100
C1386       C  0.15253507  0.57633603  0.58517798    -0.23900
H1387       H  0.15863428  0.55098028  0.71888134     0.05300
H1388       H  0.15499469  0.60468916  0.71805137     0.08500
H1389       H  0.20370699  0.58023973  0.71434847     0.08500
H1390       H  0.12027603  0.57361704  0.57904740     0.08500
H1391       H  0.17044555  0.55156035  0.57551295     0.08500
H1392       H  0.16378333  0.60483807  0.57602897     0.05300
C1393       C  0.01367553  0.46043376  0.77469334    -0.20500
C1394       C  0.05367469  0.45705717  0.78503756    -0.07100
C1395       C  0.08563276  0.47117181  0.76769531     0.13800
C1396       C  0.07716967  0.48458034  0.73989757    -0.20600
C1397       C  0.03745698  0.48565122  0.72910171    -0.07100
C1398       C  0.00518381  0.47491843  0.74718525     0.13800
C1399       C  0.96199839  0.47720097  0.73711345    -0.23900
H1400       H  0.98871832  0.45151319  0.78821241     0.15100
H1401       H  0.10199509  0.49312989  0.72604824     0.15100
C1402       C  0.12881093  0.47088266  0.77779332    -0.23900
H1403       H  0.94033415  0.46848618  0.75397849     0.05300
H1404       H  0.95757868  0.45702741  0.71855896     0.08500
H1405       H  0.95458308  0.50840246  0.73093783     0.08500
H1406       H  0.13778466  0.44007513  0.78397979     0.08500
H1407       H  0.13206232  0.49136043  0.79630703     0.08500
H1408       H  0.15001834  0.48118922  0.76093643     0.05300
C1409       C  0.95904896  0.51523984  0.50596815    -0.20500
C1410       C  0.99515097  0.53293702  0.51526718    -0.07100
C1411       C  0.01293859  0.56234221  0.49743179     0.13800
C1412       C  0.00362877  0.55379463  0.97063058    -0.20600
C1413       C  0.96917088  0.53322091  0.96098476    -0.07100
C1414       C  0.94849815  0.50860747  0.98083613     0.13800
C1415       C  0.90851743  0.48920151  0.97409679    -0.23900
H1416       H  0.94348388  0.49443871  0.51973560     0.15100
H1417       H  0.01977247  0.57287358  0.95585258     0.15100
C1418       C  0.04802657  0.58675586  0.50755736    -0.23900
H1419       H  0.88607996  0.49719508  0.99089416     0.05300
H1420       H  0.91222128  0.45616431  0.97357377     0.08500
H1421       H  0.89588410  0.49932473  0.95346036     0.08500
H1422       H  0.07313840  0.56695429  0.51436817     0.08500
H1423       H  0.03786986  0.60520058  0.52590205     0.08500
H1424       H  0.05943499  0.60721042  0.49076345     0.05300
C1425       C  0.59723693  0.30586051  0.93713724    -0.20500
C1426       C  0.59569903  0.30685887  0.96701551    -0.07100
C1427       C  0.56641120  0.33163434  0.98026640     0.13800
C1428       C  0.53931947  0.35438529  0.96337815    -0.20600
C1429       C  0.53987518  0.35257326  0.93319704    -0.07100
C1430       C  0.57023562  0.32807443  0.92010255     0.13800
C1431       C  0.57468485  0.32419988  0.88816874    -0.23900
H1432       H  0.61884070  0.28582150  0.92696787     0.15100
H1433       H  0.51736896  0.37352762  0.97398122     0.15100
C1434       C  0.56319981  0.33325000  0.01227607    -0.23900
H1435       H  0.59899658  0.30273372  0.88205567     0.05300
H1436       H  0.58286452  0.35353834  0.87877929     0.08500
H1437       H  0.54606295  0.31304422  0.87879651     0.08500
H1438       H  0.59223659  0.34384965  0.02135867     0.08500
H1439       H  0.55648819  0.30300656  0.02074672     0.08500
H1440       H  0.53876077  0.35389782  0.01946558     0.05300
C1441       C  0.53756134  0.36836869  0.65352688    -0.20500
C1442       C  0.54615932  0.37696225  0.62487612    -0.07100
C1443       C  0.57936662  0.35780251  0.61149077     0.13800
C1444       C  0.60515845  0.33340341  0.62761681    -0.20600
C1445       C  0.59834319  0.32727823  0.65683478    -0.07100
C1446       C  0.56305866  0.34340961  0.66955395     0.13800
C1447       C  0.55231721  0.33410806  0.70004278    -0.23900
H1448       H  0.51257243  0.38364094  0.66401139     0.15100
H1449       H  0.63019847  0.31806650  0.61721012     0.15100
C1450       C  0.58764688  0.36370722  0.58014387    -0.23900
H1451       H  0.52366841  0.34899162  0.70666234     0.05300
H1452       H  0.57688408  0.34445822  0.71428825     0.08500
H1453       H  0.54830658  0.30136687  0.70268756     0.08500
H1454       H  0.59290450  0.39576161  0.57543602     0.08500
H1455       H  0.56120954  0.35335581  0.56765351     0.08500
H1456       H  0.61468890  0.34653119  0.57292601     0.05300
C1457       C  0.53909358  0.12267510  0.97136207    -0.20500
C1458       C  0.54536972  0.11694046  0.94189942    -0.07100
C1459       C  0.58106778  0.13321604  0.92949558     0.13800
C1460       C  0.60735611  0.15671046  0.94604978    -0.20600
C1461       C  0.59926410  0.16532396  0.97475247    -0.07100
C1462       C  0.56517019  0.14727235  0.98772282     0.13800
C1463       C  0.55586259  0.15495115  0.01870001    -0.23900
H1464       H  0.51288561  0.10922669  0.98136783     0.15100
H1465       H  0.63296384  0.17110069  0.93587771     0.15100
C1466       C  0.59198329  0.12617858  0.89862816    -0.23900
H1467       H  0.52855993  0.13842556  0.02582084     0.05300
H1468       H  0.55044742  0.18738342  0.02232004     0.08500
H1469       H  0.58182969  0.14507061  0.03192472     0.08500
H1470       H  0.56929130  0.14071210  0.88468834     0.08500
H1471       H  0.59333453  0.09359293  0.89408816     0.08500
H1472       H  0.62195492  0.13899034  0.89307972     0.05300
C1473       C  0.56073590  0.16484832  0.61598623    -0.20500
C1474       C  0.52773833  0.15208996  0.63266077    -0.07100
C1475       C  0.53065343  0.15700191  0.66282282     0.13800
C1476       C  0.56597880  0.17318944  0.67499605    -0.20600
C1477       C  0.59776833  0.18759546  0.65819386    -0.07100
C1478       C  0.59471580  0.18341634  0.62815174     0.13800
C1479       C  0.62482289  0.20237235  0.60814040    -0.23900
H1480       H  0.55953719  0.16174401  0.59299232     0.15100
H1481       H  0.56691167  0.17869762  0.69778607     0.15100
C1482       C  0.49647580  0.14688029  0.68271031    -0.23900
H1483       H  0.63439550  0.18044850  0.59164965     0.05300
H1484       H  0.65224654  0.21308293  0.61934482     0.08500
H1485       H  0.61035545  0.22812164  0.59722210     0.08500
H1486       H  0.49104017  0.11452704  0.68167285     0.08500
H1487       H  0.46880604  0.16377575  0.67674033     0.08500
H1488       H  0.50347264  0.15427503  0.70525956     0.05300
C1489       C  0.42496320  0.05476357  0.73419719    -0.20500
C1490       C  0.46508508  0.04952835  0.72446852    -0.07100
C1491       C  0.49713789  0.05733275  0.74352393     0.13800
C1492       C  0.48815137  0.06827930  0.77187755    -0.20600
C1493       C  0.44800354  0.07069879  0.78200343    -0.07100
C1494       C  0.41605679  0.06450177  0.76271212     0.13800
C1495       C  0.37255867  0.06811353  0.77216624    -0.23900
H1496       H  0.40019060  0.05024346  0.71953024     0.15100
H1497       H  0.51281432  0.07217512  0.78678042     0.15100
C1498       C  0.54075590  0.05446670  0.73419862    -0.23900
H1499       H  0.35138482  0.06416693  0.75405802     0.05300
H1500       H  0.36719123  0.09822407  0.78154870     0.08500
H1501       H  0.36535970  0.04494444  0.78825303     0.08500
H1502       H  0.54621736  0.07482986  0.71593711     0.08500
H1503       H  0.54810852  0.02325174  0.72784061     0.08500
H1504       H  0.56172768  0.06307847  0.75159205     0.05300
C1505       C  0.54904811  0.01354717  0.49233056    -0.20500
C1506       C  0.52149217  0.98996866  0.50806803    -0.07100
C1507       C  0.51073097  0.95200070  0.49650314     0.13800
C1508       C  0.52324446  0.94454675  0.97207978    -0.20600
C1509       C  0.54655146  0.96875519  0.95400636    -0.07100
C1510       C  0.56321509  0.00411113  0.96553327     0.13800
C1511       C  0.59464625  0.02727158  0.94926057    -0.23900
H1512       H  0.56010676  0.04120621  0.50147680     0.15100
H1513       H  0.51171921  0.91650510  0.96378808     0.15100
C1514       C  0.48518329  0.92211232  0.51251292    -0.23900
H1515       H  0.60476357  0.05403848  0.96132597     0.05300
H1516       H  0.58259821  0.03731359  0.92848250     0.08500
H1517       H  0.62143857  0.00784938  0.94533123     0.08500
H1518       H  0.45447943  0.93457814  0.51647913     0.08500
H1519       H  0.49994848  0.91424740  0.53297549     0.08500
H1520       H  0.48127931  0.89384650  0.50032223     0.05300
C1521       C  0.35970696  0.94687723  0.95233450    -0.20500
C1522       C  0.36010978  0.95262944  0.92245283    -0.07100
C1523       C  0.33619022  0.92636366  0.90546365     0.13800
C1524       C  0.31259334  0.89680087  0.91868064    -0.20600
C1525       C  0.31193550  0.89160545  0.94831374    -0.07100
C1526       C  0.33584823  0.91694736  0.96537121     0.13800
C1527       C  0.33517079  0.91322242  0.99734490    -0.23900
H1528       H  0.37828458  0.96579798  0.96569077     0.15100
H1529       H  0.29340506  0.87788061  0.90570205     0.15100
C1530       C  0.33515111  0.92823595  0.87329021    -0.23900
H1531       H  0.35545264  0.93531048  0.00767027     0.05300
H1532       H  0.34533922  0.88277865  0.00353416     0.08500
H1533       H  0.30396351  0.91832841  0.00548700     0.08500
H1534       H  0.36565947  0.92174834  0.86435317     0.08500
H1535       H  0.32445660  0.95817140  0.86633825     0.08500
H1536       H  0.31422848  0.90580120  0.86402942     0.05300
C1537       C  0.34617777  0.92621632  0.66463863    -0.20500
C1538       C  0.32481512  0.90065657  0.64661546    -0.07100
C1539       C  0.32417481  0.90922378  0.61705144     0.13800
C1540       C  0.34239685  0.94433031  0.60668106    -0.20600
C1541       C  0.36080859  0.97193864  0.62513837    -0.07100
C1542       C  0.36410292  0.96149070  0.65443609     0.13800
C1543       C  0.38724333  0.98657423  0.67524096    -0.23900
H1544       H  0.34599904  0.92023501  0.68735431     0.15100
H1545       H  0.34092968  0.95077326  0.58407289     0.15100
C1546       C  0.30225361  0.88281523  0.59618448    -0.23900
H1547       H  0.38792104  0.97319536  0.69688844     0.05300
H1548       H  0.37311638  0.01659930  0.67725998     0.08500
H1549       H  0.41888252  0.98862206  0.66754429     0.08500
H1550       H  0.27699085  0.89979359  0.58634279     0.08500
H1551       H  0.28973191  0.85565227  0.60644825     0.08500
H1552       H  0.32354858  0.87294214  0.57916125     0.05300
C1553       C  0.12568765  0.89231967  0.91261980    -0.20500
C1554       C  0.11985050  0.93195795  0.92241580    -0.07100
C1555       C  0.13643342  0.94265778  0.94920332     0.13800
C1556       C  0.16053226  0.91478687  0.96404318    -0.20600
C1557       C  0.16873588  0.87634473  0.95311316    -0.07100
C1558       C  0.14987816  0.86463150  0.92754386     0.13800
C1559       C  0.15701389  0.82349220  0.91527550    -0.23900
H1560       H  0.11195249  0.88304142  0.89275225     0.15100
H1561       H  0.17594884  0.92420530  0.98327628     0.15100
C1562       C  0.13109291  0.98398083  0.96163643    -0.23900
H1563       H  0.13979890  0.81882747  0.89525288     0.05300
H1564       H  0.14719004  0.80059246  0.93091321     0.08500
H1565       H  0.18966447  0.81914735  0.91046588     0.08500
H1566       H  0.09871265  0.98951307  0.96668776     0.08500
H1567       H  0.14211273  0.00669445  0.94625894     0.08500
H1568       H  0.14832295  0.98774376  0.98174105     0.05300
C1569       C  0.14575379  0.96996365  0.64901755    -0.20500
C1570       C  0.10987470  0.94796923  0.64871374    -0.07100
C1571       C  0.11113142  0.90701882  0.65806825     0.13800
C1572       C  0.14761951  0.88999544  0.66683575    -0.20600
C1573       C  0.18355409  0.91132260  0.66611799    -0.07100
C1574       C  0.18259450  0.95235277  0.65762287     0.13800
C1575       C  0.21982077  0.97836223  0.65800862    -0.23900
H1576       H  0.14499122  0.00102399  0.64247407     0.15100
H1577       H  0.14836103  0.85883508  0.67318886     0.15100
C1578       C  0.07500642  0.87927894  0.65803574    -0.23900
H1579       H  0.21226853  0.01026970  0.65402313     0.05300
H1580       H  0.24133506  0.96898133  0.64102104     0.08500
H1581       H  0.23460522  0.97657588  0.67918112     0.08500
H1582       H  0.08316715  0.84809909  0.66389549     0.08500
H1583       H  0.05210513  0.88926392  0.67392585     0.08500
H1584       H  0.06188312  0.87791655  0.63638042     0.05300
C1585       C  0.98534153  0.03678297  0.74377440    -0.20500
C1586       C  0.99698053  0.99981452  0.73151171    -0.07100
C1587       C  0.03030481  0.97951741  0.74376615     0.13800
C1588       C  0.04728191  0.99379922  0.76945569    -0.20600
C1589       C  0.03448415  0.03000027  0.78232658    -0.07100
C1590       C  0.00481801  0.05296989  0.76787630     0.13800
C1591       C  0.99573706  0.09585217  0.77599020    -0.23900
H1592       H  0.96187236  0.05432676  0.73361199     0.15100
H1593       H  0.07181277  0.97702694  0.77899741     0.15100
C1594       C  0.05045886  0.94491099  0.72870007    -0.23900
H1595       H  0.97510715  0.11043716  0.76050034     0.05300
H1596       H  0.02426037  0.11327438  0.77618898     0.08500
H1597       H  0.98109031  0.09778537  0.79718590     0.08500
H1598       H  0.06055279  0.95441202  0.70717464     0.08500
H1599       H  0.02908919  0.91958381  0.72668283     0.08500
H1600       H  0.07771470  0.93439740  0.74027961     0.05300
C1601       C  0.99516327  0.95957491  0.50648655    -0.20500
C1602       C  0.97111437  0.99128022  0.51643463    -0.07100
C1603       C  0.94225798  0.00835507  0.49764113     0.13800
C1604       C  0.92747996  0.98510867  0.96061486    -0.20600
C1605       C  0.94722425  0.95039457  0.95048984    -0.07100
C1606       C  0.96828421  0.92621727  0.97038711     0.13800
C1607       C  0.98724443  0.88666722  0.96220193    -0.23900
H1608       H  0.01564803  0.94477484  0.52108132     0.15100
H1609       H  0.91181562  0.00421108  0.94560087     0.15100
C1610       C  0.91467265  0.04170803  0.50737335    -0.23900
H1611       H  0.97536694  0.86282808  0.97635610     0.05300
H1612       H  0.02059452  0.88833785  0.96471959     0.08500
H1613       H  0.98031475  0.87774675  0.93996253     0.08500
H1614       H  0.93276290  0.06678221  0.51611019     0.08500
H1615       H  0.89388811  0.03048504  0.52406896     0.08500
H1616       H  0.89593850  0.05345840  0.48963953     0.05300
C1617       C  0.92705445  0.28924116  0.92668163    -0.20500
C1618       C  0.90964510  0.29704806  0.95364225    -0.07100
C1619       C  0.92036289  0.33270690  0.96793926     0.13800
C1620       C  0.94721370  0.35976281  0.95457882    -0.20600
C1621       C  0.96378968  0.35215715  0.92722553    -0.07100
C1622       C  0.95387368  0.31581713  0.91344053     0.13800
C1623       C  0.97191608  0.30406039  0.88497582    -0.23900
H1624       H  0.91950170  0.26175082  0.91562784     0.15100
H1625       H  0.95434143  0.38762273  0.96528120     0.15100
C1626       C  0.90444024  0.34193487  0.99737496    -0.23900
H1627       H  0.96417076  0.27283257  0.87902426     0.05300
H1628       H  0.00541528  0.30613297  0.88586705     0.08500
H1629       H  0.96008279  0.32364017  0.86786339     0.08500
H1630       H  0.91303027  0.31757199  0.01224378     0.08500
H1631       H  0.87099056  0.34483333  0.99683912     0.08500
H1632       H  0.91686668  0.37042263  0.00581175     0.05300
C1633       C  0.92704654  0.14103303  0.97200804    -0.20500
C1634       C  0.89106162  0.15488030  0.95938654    -0.07100
C1635       C  0.87906339  0.13834161  0.93307321     0.13800
C1636       C  0.90456505  0.11072056  0.91905704    -0.20600
C1637       C  0.94198963  0.09901148  0.93065521    -0.07100
C1638       C  0.95245394  0.11296033  0.95811587     0.13800
C1639       C  0.99148170  0.10041311  0.97197721    -0.23900
H1640       H  0.93669348  0.15434709  0.99194307     0.15100
H1641       H  0.89580256  0.09912928  0.89837690     0.15100
C1642       C  0.84044834  0.15169505  0.91897467    -0.23900
H1643       H  0.99552159  0.11509898  0.99304302     0.05300
H1644       H  0.01745467  0.10866838  0.95814121     0.08500
H1645       H  0.99165441  0.06757233  0.97538967     0.08500
H1646       H  0.84162406  0.18427322  0.91451011     0.08500
H1647       H  0.81439224  0.14550665  0.93329458     0.08500
H1648       H  0.83537527  0.13575680  0.89848776     0.05300
C1649       C  0.92776972  0.34630731  0.66563195    -0.20500
C1650       C  0.90381981  0.32974320  0.64408962    -0.07100
C1651       C  0.91640467  0.33465730  0.61532177     0.13800
C1652       C  0.95332590  0.35338059  0.60904185    -0.20600
C1653       C  0.97892868  0.36775572  0.63055903    -0.07100
C1654       C  0.96500331  0.36515358  0.65939795     0.13800
C1655       C  0.98890752  0.38168101  0.68402452    -0.23900
H1656       H  0.91879549  0.34183980  0.68764941     0.15100
H1657       H  0.96237007  0.35615586  0.58689642     0.15100
C1658       C  0.89239142  0.31847604  0.59057520    -0.23900
H1659       H  0.97313460  0.37734457  0.70474370     0.05300
H1660       H  0.99323003  0.41430263  0.68117472     0.08500
H1661       H  0.01865805  0.36628088  0.68538351     0.08500
H1662       H  0.86256131  0.30653400  0.59720725     0.08500
H1663       H  0.90984648  0.29426486  0.57983740     0.08500
H1664       H  0.88682158  0.34262498  0.57489133     0.05300
C1665       C  0.91189445  0.17214920  0.66268827    -0.20500
C1666       C  0.89104812  0.19004380  0.64021271    -0.07100
C1667       C  0.90176719  0.18023027  0.61171981     0.13800
C1668       C  0.93033635  0.14978294  0.60660723    -0.20600
C1669       C  0.94976154  0.13067384  0.62929524    -0.07100
C1670       C  0.94203670  0.14373899  0.65753974     0.13800
C1671       C  0.96354632  0.12603062  0.68289525    -0.23900
H1672       H  0.90587963  0.18166632  0.68445127     0.15100
H1673       H  0.93529278  0.13906881  0.58501821     0.15100
C1674       C  0.88311942  0.20069389  0.58636234    -0.23900
H1675       H  0.97791210  0.15030685  0.69544568     0.05300
H1676       H  0.98773046  0.10460180  0.67655577     0.08500
H1677       H  0.94142129  0.11021218  0.69665974     0.08500
H1678       H  0.90692277  0.21700759  0.57442079     0.08500
H1679       H  0.85888922  0.22219597  0.59241616     0.08500
H1680       H  0.86976134  0.17800529  0.57195451     0.05300
C1681       C  0.66455840  0.07748948  0.78156147    -0.20500
C1682       C  0.67085597  0.11854631  0.78722105    -0.07100
C1683       C  0.64505443  0.13773056  0.80698103     0.13800
C1684       C  0.61457145  0.11551888  0.82082288    -0.20600
C1685       C  0.60933230  0.07385683  0.81631566    -0.07100
C1686       C  0.63446424  0.05499417  0.79574715     0.13800
C1687       C  0.62998377  0.01132407  0.78853663    -0.23900
H1688       H  0.68470545  0.06239831  0.76668378     0.15100
H1689       H  0.59535841  0.13099146  0.83602347     0.15100
C1690       C  0.65105330  0.18104539  0.81479700    -0.23900
H1691       H  0.59873341  0.00540434  0.78106971     0.05300
H1692       H  0.63654811  0.99285522  0.80759527     0.08500
H1693       H  0.65123568  0.00188263  0.77135536     0.08500
H1694       H  0.64743049  0.19997814  0.79557157     0.08500
H1695       H  0.68184156  0.18533397  0.82366088     0.08500
H1696       H  0.62876704  0.19132710  0.83106725     0.05300
C1697       C  0.88467740  0.07196501  0.78417066    -0.20500
C1698       C  0.87730837  0.04559893  0.80709309    -0.07100
C1699       C  0.83807151  0.04531689  0.81903007     0.13800
C1700       C  0.80822055  0.07181021  0.80860317    -0.20600
C1701       C  0.81584430  0.09955088  0.78638338    -0.07100
C1702       C  0.85480170  0.09865694  0.77364646     0.13800
C1703       C  0.86530440  0.12543394  0.74897367    -0.23900
H1704       H  0.91465312  0.07253503  0.77494404     0.15100
H1705       H  0.77871099  0.07143920  0.81873189     0.15100
C1706       C  0.82807027  0.01868006  0.84391906    -0.23900
H1707       H  0.89645723  0.11965964  0.74094665     0.05300
H1708       H  0.86364100  0.15723856  0.75574348     0.08500
H1709       H  0.84400860  0.12016825  0.73112783     0.08500
H1710       H  0.84796919  0.02592586  0.86222426     0.08500
H1711       H  0.83253739  0.98688078  0.83771836     0.08500
H1712       H  0.79618219  0.02247499  0.85104340     0.05300
C1713       C  0.64356772  0.07798344  0.63883784    -0.20500
C1714       C  0.62864395  0.05555013  0.61592758    -0.07100
C1715       C  0.64385622  0.06295238  0.58809338     0.13800
C1716       C  0.66948428  0.09535425  0.58337789    -0.20600
C1717       C  0.68308706  0.11888535  0.60600620    -0.07100
C1718       C  0.67189008  0.10862686  0.63424281     0.13800
C1719       C  0.68954869  0.13034240  0.65940963    -0.23900
H1720       H  0.63143266  0.07308608  0.66004348     0.15100
H1721       H  0.68056600  0.10102136  0.56196234     0.15100
C1722       C  0.63165400  0.03816284  0.56260279    -0.23900
H1723       H  0.67487769  0.12138898  0.67974772     0.05300
H1724       H  0.68550970  0.16295123  0.65656898     0.08500
H1725       H  0.72237293  0.12368044  0.66105804     0.08500
H1726       H  0.61465089  0.05708527  0.54730025     0.08500
H1727       H  0.61257318  0.01225980  0.56861503     0.08500
H1728       H  0.65915806  0.02617344  0.55184132     0.05300
C1729       C  0.82912520  0.10156219  0.63198054    -0.20500
C1730       C  0.82252147  0.11117860  0.60330752    -0.07100
C1731       C  0.83410722  0.08338131  0.58204185     0.13800
C1732       C  0.84958389  0.04576710  0.59007099    -0.20600
C1733       C  0.85271696  0.03457264  0.61895546    -0.07100
C1734       C  0.84298763  0.06357198  0.64020899     0.13800
C1735       C  0.84468568  0.05453198  0.67169574    -0.23900
H1736       H  0.81921579  0.12266054  0.64822362     0.15100
H1737       H  0.85759698  0.02440000  0.57356419     0.15100
C1738       C  0.82683072  0.09202122  0.55094944    -0.23900
H1739       H  0.83314822  0.07987568  0.68481814     0.05300
H1740       H  0.87637012  0.04896265  0.67834629     0.08500
H1741       H  0.82568560  0.02808372  0.67656595     0.08500
H1742       H  0.84424417  0.11882602  0.54444718     0.08500
H1743       H  0.79411747  0.09739688  0.54717163     0.08500
H1744       H  0.83618384  0.06665135  0.53712111     0.05300
C1745       C  0.40981184  0.67253409  0.83134014    -0.20500
C1746       C  0.39460826  0.67170784  0.80324855    -0.07100
C1747       C  0.40185979  0.63701138  0.78662264     0.13800
C1748       C  0.42360374  0.60446552  0.79854087    -0.20600
C1749       C  0.43969521  0.60606007  0.82640925    -0.07100
C1750       C  0.43226007  0.64063610  0.84295310     0.13800
C1751       C  0.44670640  0.64344319  0.87332514    -0.23900
H1752       H  0.40424275  0.69873882  0.84441767     0.15100
H1753       H  0.42796068  0.57742380  0.78604953     0.15100
C1754       C  0.38773638  0.63460343  0.75620522    -0.23900
H1755       H  0.43778242  0.67226123  0.88345704     0.05300
H1756       H  0.48021303  0.64115913  0.87385497     0.08500
H1757       H  0.43347772  0.61884186  0.88613497     0.08500
H1758       H  0.40139327  0.65918509  0.74358520     0.08500
H1759       H  0.35426748  0.63724363  0.75549473     0.08500
H1760       H  0.39650463  0.60576137  0.74605039     0.05300
C1761       C  0.40837801  0.85348407  0.78605740    -0.20500
C1762       C  0.41481997  0.81616667  0.79904382    -0.07100
C1763       C  0.44570678  0.81410086  0.82050693     0.13800
C1764       C  0.46672573  0.84900667  0.82897763    -0.20600
C1765       C  0.45822521  0.88642795  0.81716398    -0.07100
C1766       C  0.42934856  0.88824963  0.79469172     0.13800
C1767       C  0.42037330  0.92698083  0.77940391    -0.23900
H1768       H  0.38610669  0.85580398  0.76925564     0.15100
H1769       H  0.48830393  0.84748462  0.84628441     0.15100
C1770       C  0.45624574  0.77595599  0.83594349    -0.23900
H1771       H  0.40048306  0.92221183  0.76067659     0.05300
H1772       H  0.44900032  0.94043112  0.77160136     0.08500
H1773       H  0.40451105  0.94838952  0.79372880     0.08500
H1774       H  0.46798308  0.75324700  0.82066208     0.08500
H1775       H  0.42917698  0.76472254  0.84738365     0.08500
H1776       H  0.48020464  0.78052151  0.85215384     0.05300
C1777       C  0.42494880  0.66933396  0.58933079    -0.20500
C1778       C  0.40065320  0.68380225  0.61161389    -0.07100
C1779       C  0.41250979  0.67602792  0.64004614     0.13800
C1780       C  0.44914888  0.65606246  0.64542112    -0.20600
C1781       C  0.47495244  0.64343409  0.62318468    -0.07100
C1782       C  0.46160755  0.64900346  0.59457882     0.13800
C1783       C  0.48505923  0.63342174  0.56919573    -0.23900
H1784       H  0.41636209  0.67608430  0.56757824     0.15100
H1785       H  0.45779268  0.65086928  0.66737168     0.15100
C1786       C  0.38770378  0.68987001  0.66529884    -0.23900
H1787       H  0.46933064  0.63969774  0.54879751     0.05300
H1788       H  0.48855897  0.60046640  0.57081569     0.08500
H1789       H  0.51515514  0.64793421  0.56807987     0.08500
H1790       H  0.35866158  0.70389819  0.65890460     0.08500
H1791       H  0.40521796  0.71192400  0.67792141     0.08500
H1792       H  0.38053542  0.66387847  0.67908489     0.05300
C1793       C  0.40230262  0.83778157  0.64004308    -0.20500
C1794       C  0.39834519  0.82328519  0.61194782    -0.07100
C1795       C  0.42830855  0.83345930  0.59163356     0.13800
C1796       C  0.45868116  0.86047406  0.59908968    -0.20600
C1797       C  0.45948549  0.87912297  0.62595316    -0.07100
C1798       C  0.43245537  0.86584559  0.64721459     0.13800
C1799       C  0.43553385  0.88139319  0.67725759    -0.23900
H1800       H  0.38180176  0.82703971  0.65639051     0.15100
H1801       H  0.47957917  0.87036882  0.58266842     0.15100
C1802       C  0.42976363  0.81630873  0.56182083    -0.23900
H1803       H  0.41183213  0.86844454  0.69128596     0.05300
H1804       H  0.43226660  0.91436142  0.67761175     0.08500
H1805       H  0.46559326  0.87337409  0.68608768     0.08500
H1806       H  0.40512991  0.79500140  0.55719574     0.08500
H1807       H  0.45892280  0.80025718  0.55856620     0.08500
H1808       H  0.42769252  0.84100893  0.54610656     0.05300
C1809       C  0.81176535  0.44162903  0.81540733    -0.20500
C1810       C  0.81797717  0.41354048  0.79294340    -0.07100
C1811       C  0.85774135  0.40938026  0.78199600     0.13800
C1812       C  0.88966087  0.43052887  0.79498607    -0.20600
C1813       C  0.88358936  0.45724708  0.81808116    -0.07100
C1814       C  0.84376971  0.46323784  0.82799197     0.13800
C1815       C  0.83522018  0.49028192  0.85305781    -0.23900
H1816       H  0.78166499  0.44593645  0.82412996     0.15100
H1817       H  0.92026646  0.42443402  0.78789471     0.15100
C1818       C  0.86725979  0.38280748  0.75679202    -0.23900
H1819       H  0.80249786  0.49109157  0.85854703     0.05300
H1820       H  0.84485552  0.52122612  0.84796385     0.08500
H1821       H  0.85199192  0.47952913  0.87203410     0.08500
H1822       H  0.84850030  0.39180488  0.73827844     0.08500
H1823       H  0.86137790  0.35108351  0.76224005     0.08500
H1824       H  0.89951411  0.38503696  0.75022607     0.05300
C1825       C  0.67564134  0.41298107  0.82545732    -0.20500
C1826       C  0.67305207  0.39992571  0.79688267    -0.07100
C1827       C  0.63870278  0.41108599  0.78089952     0.13800
C1828       C  0.60774262  0.43408419  0.79408575    -0.20600
C1829       C  0.61078697  0.44726640  0.82263719    -0.07100
C1830       C  0.64518626  0.43621692  0.83842337     0.13800
C1831       C  0.64900593  0.44748824  0.86944279    -0.23900
H1832       H  0.70215239  0.40509183  0.83780526     0.15100
H1833       H  0.58047423  0.44099742  0.78228448     0.15100
C1834       C  0.63502016  0.39954250  0.74998540    -0.23900
H1835       H  0.67786020  0.43652658  0.87870409     0.05300
H1836       H  0.62372192  0.43427444  0.88186956     0.08500
H1837       H  0.64808215  0.48055212  0.87171655     0.08500
H1838       H  0.63525436  0.36645641  0.74788549     0.08500
H1839       H  0.66075818  0.41207360  0.73766760     0.08500
H1840       H  0.60648194  0.41102686  0.74055372     0.05300
C1841       C  0.84108431  0.41322338  0.58003683    -0.20500
C1842       C  0.82392982  0.39282184  0.60299284    -0.07100
C1843       C  0.83341774  0.40521440  0.63120768     0.13800
C1844       C  0.86269573  0.43508208  0.63552552    -0.20600
C1845       C  0.88123479  0.45405437  0.61235783    -0.07100
C1846       C  0.86831856  0.44442579  0.58434947     0.13800
C1847       C  0.88333487  0.46629612  0.55834975    -0.23900
H1848       H  0.83169685  0.40606073  0.55847786     0.15100
H1849       H  0.87276582  0.44178157  0.65697947     0.15100
C1850       C  0.81375457  0.38724479  0.65720354    -0.23900
H1851       H  0.85715586  0.47802072  0.54612951     0.05300
H1852       H  0.90079647  0.44533264  0.54454129     0.08500
H1853       H  0.90260622  0.49225078  0.56387134     0.08500
H1854       H  0.79410541  0.36143803  0.65204729     0.08500
H1855       H  0.79523461  0.41041705  0.66822663     0.08500
H1856       H  0.83740204  0.37671462  0.67215867     0.05300
C1857       C  0.67243080  0.42451519  0.58296176    -0.20500
C1858       C  0.68334046  0.39610265  0.60350985    -0.07100
C1859       C  0.67623499  0.40555882  0.63262322     0.13800
C1860       C  0.65854692  0.44237289  0.64026916    -0.20600
C1861       C  0.64898159  0.47163327  0.61986761    -0.07100
C1862       C  0.65639393  0.46230258  0.59064831     0.13800
C1863       C  0.64887028  0.49211630  0.56727519    -0.23900
H1864       H  0.68004406  0.41854515  0.56083886     0.15100
H1865       H  0.65314183  0.44857300  0.66267085     0.15100
C1866       C  0.68996564  0.37854056  0.65640625    -0.23900
H1867       H  0.65723655  0.48003283  0.54595477     0.05300
H1868       H  0.66729019  0.51932487  0.57094549     0.08500
H1869       H  0.61637240  0.50011053  0.56679040     0.08500
H1870       H  0.71480443  0.39315336  0.66835964     0.08500
H1871       H  0.70082509  0.34904713  0.64849549     0.08500
H1872       H  0.66450014  0.37334500  0.67138786     0.05300
C1873       C  0.07719244  0.80587206  0.82149689    -0.20500
C1874       C  0.09410953  0.80758227  0.79384643    -0.07100
C1875       C  0.07974739  0.83727968  0.77504995     0.13800
C1876       C  0.05048097  0.86522464  0.78473886    -0.20600
C1877       C  0.03510865  0.86492154  0.81282883    -0.07100
C1878       C  0.04862361  0.83437707  0.83130357     0.13800
C1879       C  0.03474784  0.83320678  0.86192860    -0.23900
H1880       H  0.08729261  0.78257708  0.83587101     0.15100
H1881       H  0.04099132  0.88909173  0.77079744     0.15100
C1882       C  0.09493404  0.83926839  0.74475840    -0.23900
H1883       H  0.04850819  0.80775613  0.87363881     0.05300
H1884       H  0.00135221  0.82995318  0.86277165     0.08500
H1885       H  0.04341778  0.86127130  0.87301530     0.08500
H1886       H  0.08967812  0.81023436  0.73385205     0.08500
H1887       H  0.12778138  0.84602802  0.74455366     0.08500
H1888       H  0.07917497  0.86277567  0.73237147     0.05300
C1889       C  0.07414684  0.65874829  0.78463949    -0.20500
C1890       C  0.11556125  0.66511065  0.79053642    -0.07100
C1891       C  0.13494250  0.63914627  0.80972149     0.13800
C1892       C  0.11225600  0.60922709  0.82354581    -0.20600
C1893       C  0.07018002  0.60409901  0.81893381    -0.07100
C1894       C  0.05138531  0.62861120  0.79835175     0.13800
C1895       C  0.00766752  0.62302122  0.79051179    -0.23900
H1896       H  0.05899129  0.67881430  0.76999632     0.15100
H1897       H  0.12758870  0.59031945  0.83883925     0.15100
C1898       C  0.17903811  0.64423775  0.81679754    -0.23900
H1899       H  0.99827228  0.64376994  0.77328929     0.05300
H1900       H  0.98807250  0.62894138  0.80933604     0.08500
H1901       H  0.00286572  0.59193185  0.78284524     0.08500
H1902       H  0.18415669  0.67438787  0.82607701     0.08500
H1903       H  0.19755465  0.64079882  0.79712492     0.08500
H1904       H  0.18952859  0.62163398  0.83245150     0.05300
C1905       C  0.00377731  0.82561339  0.57437375    -0.20500
C1906       C  0.01298874  0.86459142  0.58265165    -0.07100
C1907       C  0.05172078  0.88022010  0.57537923     0.13800
C1908       C  0.08257330  0.85437532  0.56571626    -0.20600
C1909       C  0.07475013  0.81390305  0.56130189    -0.07100
C1910       C  0.03376751  0.80077877  0.56238691     0.13800
C1911       C  0.02135555  0.75986872  0.55217427    -0.23900
H1912       H  0.97341325  0.81429893  0.57760308     0.15100
H1913       H  0.11332760  0.86528059  0.56388218     0.15100
C1914       C  0.06211650  0.92370809  0.57813051    -0.23900
H1915       H  0.99646536  0.76287275  0.53649030     0.05300
H1916       H  0.01064192  0.74168498  0.57046246     0.08500
H1917       H  0.04659300  0.74393955  0.54129922     0.08500
H1918       H  0.06992248  0.93579183  0.55680473     0.08500
H1919       H  0.03688681  0.94178626  0.58695791     0.08500
H1920       H  0.08901333  0.92687835  0.59194646     0.05300
C1921       C  0.09564016  0.68652278  0.62990138    -0.20500
C1922       C  0.10482478  0.68837968  0.60066319    -0.07100
C1923       C  0.08332609  0.66395217  0.58144312     0.13800
C1924       C  0.05308879  0.63872183  0.59176427    -0.20600
C1925       C  0.04589363  0.63435924  0.62107836    -0.07100
C1926       C  0.06745196  0.65864672  0.64040590     0.13800
C1927       C  0.06127784  0.65429517  0.67204678    -0.23900
H1928       H  0.11048914  0.70691992  0.64446478     0.15100
H1929       H  0.03803852  0.61888555  0.57692054     0.15100
C1930       C  0.09172707  0.66369353  0.54976529    -0.23900
H1931       H  0.08001874  0.67585692  0.68423308     0.05300
H1932       H  0.06980563  0.62360783  0.67882616     0.08500
H1933       H  0.02898433  0.65984233  0.67744282     0.08500
H1934       H  0.11607945  0.68443215  0.54325437     0.08500
H1935       H  0.06386460  0.67206852  0.53805381     0.08500
H1936       H  0.10143234  0.63322393  0.54313340     0.05300
loop_ 
_geom_bond_atom_site_label_1 
_geom_bond_atom_site_label_2 
_geom_bond_distance 
_geom_bond_site_symmetry_2 
_ccdc_geom_bond_type 
C1            C2   1.542       .  S
C1            C7   1.536       .  S
C1            C5   1.544       .  S
C1           C77   1.550       .  S
C2          H977   1.086       .  S
C2          C971   1.373       .  D
C3            C4   1.566       .  S
C3          C970   1.375       .  D
C3          C165   1.517       .  S
C4            C8   1.571       .  S
C4          C974   1.551       .  S
C4           H10   1.110       .  S
C5           H11   1.086       .  S
C5            C6   1.374       .  D
C6          C972   1.553       .  S
C6           C53   1.503       .  S
C7          H980   1.086       .  S
C7          C976   1.372       .  D
C8          C975   1.371       .  D
C8          C281   1.514       .  S
H9          C970   1.086       .  S
H12         C975   1.086       .  S
C13          C14   1.528       .  S
C13          C19   1.544       .  S
C13          C17   1.540       .  S
C13         C157   1.548       .  S
C14          H21   1.086       .  S
C14          C15   1.371       .  D
C15          C16   1.592       .  S
C15          C81   1.534       .  S
C16          C20   1.574       .  S
C16          C18   1.560       .  S
C16          H22   1.110       .  S
C17          H23   1.086       .  S
C17          C18   1.371       .  D
C18         C275   1.501       .  S
C19          H24   1.086       .  S
C19          C20   1.376       .  D
C20          C57   1.530       .  S
C25          C29   1.546       .  S
C25         C994   1.529       .  S
C25         C999   1.544       .  S
C25         C107   1.548       .  S
C26         C993   1.530       .  S
C26          H33   1.086       .  S
C26          C27   1.362       .  D
C27          C28   1.566       .  S
C27          C89   1.504       .  S
C28          C32   1.565       .  S
C28         C998   1.568       .  S
C28          H34   1.110       .  S
C29          H35   1.086       .  S
C29          C30   1.376       .  D
C30         C996   1.566       .  S
C30         C221   1.515       .  S
C31         C993   1.542       .  S
C31          H36   1.086       .  S
C31          C32   1.377       .  D
C32          C63   1.514       .  S
C37          C38   1.542       .  S
C37          C43   1.533       .  S
C37          C41   1.538       .  S
C37         C101   1.538       .  S
C38          H45   1.086       .  S
C38          C39   1.374       .  D
C39          C40   1.577       .  S
C39          C93   1.527       .  S
C40          C44   1.584       .  S
C40          C42   1.561       .  S
C40          H46   1.110       .  S
C41          H47   1.087       .  S
C41          C42   1.366       .  D
C42         C215   1.501       .  S
C43          H48   1.086       .  S
C43          C44   1.371       .  D
C44          C69   1.527       .  S
C49          N50   1.334       .  A
C49          N54   1.358       .  A
C49         C954   1.458       .  S
N50          C51   1.340       .  A
C51          N52   1.378       .  A
C51         C941   1.495       .  S
N52          C53   1.384       .  A
C53          N54   1.368       .  A
C55          N56   1.383       .  A
C55          N60   1.349       .  A
C55         C922   1.511       .  S
N56          C57   1.383       .  A
C57          N58   1.374       .  A
N58          C59   1.364       .  A
C59          N60   1.339       .  A
C59         C906   1.485       .  S
C61          N62   1.362       .  A
C61          N66   1.338       .  A
C61         C874   1.471       .  S
N62          C63   1.370       .  A
C63          N64   1.378       .  A
N64          C65   1.377       .  A
C65          N66   1.344       .  A
C65         C890   1.484       .  S
C67          N68   1.369       .  A
C67          N72   1.353       .  A
C67         C842   1.523       .  S
N68          C69   1.376       .  A
C69          N70   1.374       .  A
N70          C71   1.377       .  A
C71          N72   1.356       .  A
C71         C858   1.509       .  S
C73          N74   1.340       .  A
C73          N78   1.365       .  A
C73         C826   1.471       .  S
N74          C75   1.343       .  A
C75          N76   1.374       .  A
C75         C810   1.485       .  S
N76          C77   1.380       .  A
C77          N78   1.370       .  A
C79          N80   1.369       .  A
C79          N84   1.348       .  A
C79         C794   1.514       .  S
N80          C81   1.380       .  A
C81          N82   1.377       .  A
N82          C83   1.380       .  A
C83          N84   1.352       .  A
C83         C778   1.502       .  S
C85          N86   1.342       .  A
C85          N90   1.369       .  A
C85         C749   1.465       .  S
N86          C87   1.341       .  A
C87          N88   1.362       .  A
C87         C762   1.480       .  S
N88          C89   1.374       .  A
C89          N90   1.366       .  A
C91          N92   1.376       .  A
C91          N96   1.353       .  A
C91         C714   1.504       .  S
N92          C93   1.376       .  A
C93          N94   1.379       .  A
N94          C95   1.371       .  A
C95          N96   1.349       .  A
C95         C733   1.518       .  S
C97          N98   1.342       .  A
C97         N102   1.360       .  A
C97         C698   1.462       .  S
N98          C99   1.346       .  A
C99         N100   1.373       .  A
C99         C682   1.490       .  S
N100        C101   1.377       .  A
C101        N102   1.364       .  A
C103        N104   1.340       .  A
C103        N108   1.364       .  A
C103        C666   1.483       .  S
N104        C105   1.347       .  A
C105        N106   1.372       .  A
C105        C650   1.504       .  S
N106        C107   1.378       .  A
C107        N108   1.378       .  A
Zn109       O113   1.852       .  S
Zn109       O114   1.961       .  S
Zn109       O118   1.894   1_565  S
Zn109       O125   1.977   1_565  S
Zn110       O113   1.944       .  S
Zn110       O115   1.987       .  S
Zn110       O117   2.047       .  S
Zn110       O121   2.021       .  S
Zn111       O113   1.963   1_545  S
Zn111       O116   2.099       .  S
Zn111       O119   2.112   1_545  S
Zn111       O122   2.141   1_645  S
Zn112       O113   1.911       .  S
Zn112       O120   1.850   1_655  S
Zn112       O123   2.042       .  S
Zn112       O124   2.111       .  S
O114        C126   1.265       .  A
O115        C127   1.267       .  A
O116        C128   1.287       .  A
O117        C126   1.274       .  A
O118        C128   1.263       .  A
O119        C127   1.286       .  A
O120        C129   1.247       .  A
O121        C130   1.276       .  A
O122        C129   1.286       .  A
O123        C130   1.284       .  A
O124        C131   1.283       .  A
O125        C131   1.266   1_545  A
C126        C765   1.502   1_565  S
C127        C634   1.487       .  S
C128        C701   1.461       .  S
C129        C602   1.488       .  S
C130        C938   1.488   1_655  S
C131        C618   1.518   1_655  S
Zn132       O136   1.915       .  S
Zn132       O137   2.042   1_455  S
Zn132       O141   2.028       .  S
Zn132       O148   1.939   1_545  S
Zn133       O136   1.899   1_655  S
Zn133       O138   2.045   1_655  S
Zn133       O140   2.055       .  S
Zn133       O144   1.964       .  S
Zn134       O136   1.898   1_565  S
Zn134       O139   2.042       .  S
Zn134       O142   1.997   1_565  S
Zn134       O145   1.878       .  S
Zn135       O136   2.020   1_665  S
Zn135       O143   2.164       .  S
Zn135       O146   2.148       .  S
Zn135       O147   2.141       .  S
O137        C149   1.281       .  A
O138        C150   1.282       .  A
O139        C151   1.275       .  A
O140        C149   1.286       .  A
O141        C151   1.274   1_545  A
O142        C150   1.275       .  A
O143        C152   1.292   1_655  A
O144        C153   1.264       .  A
O145        C152   1.258       .  A
O146        C153   1.289   1_565  A
O147        C154   1.281       .  A
O148        C154   1.252   1_455  A
C149        C669   1.498       .  S
C150        C621   1.513       .  S
C151        C586   1.509       .  S
C152        C909   1.491       .  S
C153        C730   1.506       .  S
C154        C637   1.492       .  S
C155        N156   1.365       .  A
C155        N160   1.336       .  A
C155        C605   1.479       .  S
N156        C157   1.367       .  A
C157        N158   1.380       .  A
N158        C159   1.374       .  A
C159        N160   1.340       .  A
C159        C570   1.477       .  S
C161        N162   1.345       .  A
C161        N166   1.376       .  A
C161        C589   1.487       .  S
N162        C163   1.342       .  A
C163        N164   1.363       .  A
C163        C557   1.477       .  S
N164        C165   1.374       .  A
C165        N166   1.379       .  A
Zn167       O171   1.925       .  S
Zn167       O172   1.856       .  S
Zn167       O176   1.971       .  S
Zn167       O183   2.037       .  S
Zn168       O171   2.003   1_565  S
Zn168       O173   2.085   1_565  S
Zn168       O175   2.112   1_565  S
Zn168       O179   2.114       .  S
Zn169       O171   1.959       .  S
Zn169       O174   2.046       .  S
Zn169       O177   1.966       .  S
Zn169       O180   2.050       .  S
Zn170       O171   1.915       .  S
Zn170       O178   1.979       .  S
Zn170       O181   1.894   1_545  S
Zn170       O182   2.034   1_545  S
O172        C184   1.257       .  A
O173        C185   1.279       .  A
O174        C186   1.276       .  A
O175        C184   1.285       .  A
O176        C186   1.272       .  A
O177        C185   1.266       .  A
O178        C187   1.274       .  A
O179        C188   1.286       .  A
O180        C187   1.277       .  A
O181        C188   1.261       .  A
O182        C189   1.273   1_565  A
O183        C189   1.270       .  A
C184        C746   1.467       .  S
C185        C522   1.494       .  S
C186        C506   1.505       .  S
C187        C573   1.515   1_545  S
C188        C829   1.475       .  S
C189        C538   1.506   1_545  S
Zn190       O194   1.914       .  S
Zn190       O195   1.962   1_545  S
Zn190       O199   2.000       .  S
Zn190       O206   2.024   1_545  S
Zn191       O194   1.996   1_565  S
Zn191       O196   2.126   1_565  S
Zn191       O198   2.154       .  S
Zn191       O202   2.138       .  S
Zn192       O194   1.912       .  S
Zn192       O197   2.014       .  S
Zn192       O200   1.975       .  S
Zn192       O203   2.039       .  S
Zn193       O194   1.923       .  S
Zn193       O201   2.061       .  S
Zn193       O204   1.950   1_545  S
Zn193       O205   2.019       .  S
O195        C207   1.267       .  A
O196        C208   1.287       .  A
O197        C209   1.278       .  A
O198        C207   1.293       .  A
O199        C209   1.274       .  A
O200        C208   1.267       .  A
O201        C210   1.281       .  A
O202        C211   1.280       .  A
O203        C210   1.279       .  A
O204        C211   1.255       .  A
O205        C212   1.274   1_545  A
O206        C212   1.274       .  A
C207        C797   1.499       .  S
C208        C717   1.514       .  S
C209        C525   1.477       .  S
C210        C490   1.505       .  S
C211        C541   1.488       .  S
C212        C554   1.500       .  S
C213        N214   1.364       .  A
C213        N218   1.335       .  A
C213        C477   1.459       .  S
N214        C215   1.369       .  A
C215        N216   1.379       .  A
N216        C217   1.371       .  A
C217        N218   1.337       .  A
C217        C509   1.477       .  S
C219        N220   1.370       .  A
C219        N224   1.348       .  A
C219        C493   1.488       .  S
N220        C221   1.375       .  A
C221        N222   1.377       .  A
N222        C223   1.373       .  A
C223        N224   1.349       .  A
C223        C458   1.495       .  S
Zn225       O229   1.881       .  S
Zn225       O230   2.085       .  S
Zn225       O234   1.963       .  S
Zn225       O241   1.920       .  S
Zn226       O229   1.897       .  S
Zn226       O231   1.980       .  S
Zn226       O233   2.043       .  S
Zn226       O237   1.900   1_455  S
Zn227       O229   1.969       .  S
Zn227       O232   2.053       .  S
Zn227       O235   2.037       .  S
Zn227       O238   1.967       .  S
Zn228       O229   1.978   1_655  S
Zn228       O236   2.094   1_655  S
Zn228       O239   2.108       .  S
Zn228       O240   2.104   1_655  S
O230        C242   1.280       .  A
O231        C243   1.276       .  A
O232        C244   1.275       .  A
O233        C242   1.277       .  A
O234        C244   1.271       .  A
O235        C243   1.274       .  A
O236        C245   1.283       .  A
O237        C246   1.261       .  A
O238        C245   1.267       .  A
O239        C246   1.285       .  A
O240        C247   1.283       .  A
O241        C247   1.253       .  A
C242        C442   1.515       .  S
C243        C685   1.508   1_455  S
C244        C410   1.514       .  S
C245        C429   1.490       .  S
C246        C877   1.473       .  S
C247        C957   1.457       .  S
Zn248       O252   1.931       .  S
Zn248       O253   1.946   1_455  S
Zn248       O257   2.052       .  S
Zn248       O264   2.007       .  S
Zn249       O252   2.001   1_655  S
Zn249       O254   2.136   1_655  S
Zn249       O256   2.157       .  S
Zn249       O260   2.166       .  S
Zn250       O252   1.922       .  S
Zn250       O255   2.049       .  S
Zn250       O258   1.950       .  S
Zn250       O261   2.024       .  S
Zn251       O252   1.916       .  S
Zn251       O259   1.996       .  S
Zn251       O262   1.965   1_455  S
Zn251       O263   2.021   1_455  S
O253        C265   1.254       .  A
O254        C266   1.288       .  A
O255        C267   1.281       .  A
O256        C265   1.282       .  A
O257        C267   1.279       .  A
O258        C266   1.264       .  A
O259        C268   1.273       .  A
O260        C269   1.294       .  A
O261        C268   1.280       .  A
O262        C269   1.268       .  A
O263        C270   1.273       .  A
O264        C270   1.271   1_455  A
C265        C445   1.498       .  S
C266        C925   1.513       .  S
C267        C394   1.492       .  S
C268        C426   1.495       .  S
C269        C845   1.512       .  S
C270        C653   1.486       .  S
C271        N272   1.336       .  A
C271        N276   1.361       .  A
C271        C378   1.458       .  S
N272        C273   1.340       .  A
C273        N274   1.375       .  A
C273        C413   1.483       .  S
N274        C275   1.382       .  A
C275        N276   1.366       .  A
C277        N278   1.346       .  A
C277        N282   1.369       .  A
C277        C362   1.505       .  S
N278        C279   1.344       .  A
C279        N280   1.371       .  A
C279        C397   1.484       .  S
N280        C281   1.376       .  A
C281        N282   1.380       .  A
Zn283       O287   1.920       .  S
Zn283       O288   1.983       .  S
Zn283       O292   1.884       .  S
Zn283       O299   2.033       .  S
Zn284       O287   1.959       .  S
Zn284       O289   1.985       .  S
Zn284       O291   2.048       .  S
Zn284       O295   2.052       .  S
Zn285       O287   1.981       .  S
Zn285       O290   2.076       .  S
Zn285       O293   2.076       .  S
Zn285       O296   2.082       .  S
Zn286       O287   1.910       .  S
Zn286       O294   1.891       .  S
Zn286       O297   1.975       .  S
Zn286       O298   2.038       .  S
O288        C300   1.275       .  A
O289        C301   1.266       .  A
O290        C302   1.280       .  A
O291        C300   1.277       .  A
O292        C302   1.259       .  A
O293        C301   1.280       .  A
O294        C303   1.261       .  A
O295        C304   1.277       .  A
O296        C303   1.282       .  A
O297        C304   1.274       .  A
O298        C305   1.271       .  A
O299        C305   1.272       .  A
C300        C893   1.511       .  S
C301        C346   1.482       .  S
C302        C474   1.455       .  S
C303        C381   1.460       .  S
C304        C813   1.514       .  S
C305        C330   1.511       .  S
Zn306       O310   1.954       .  S
Zn306       O311   2.036       .  S
Zn306       O315   2.016       .  S
Zn306       O322   1.935       .  S
Zn307       O310   1.957       .  S
Zn307       O312   2.050       .  S
Zn307       O314   2.039       .  S
Zn307       O318   1.873       .  S
Zn308       O310   1.950       .  S
Zn308       O313   2.017       .  S
Zn308       O316   2.043       .  S
Zn308       O319   1.943       .  S
Zn309       O310   2.033       .  S
Zn309       O317   2.163       .  S
Zn309       O320   2.139       .  S
Zn309       O321   2.172       .  S
O311        C323   1.274       .  A
O312        C324   1.276       .  A
O313        C325   1.275       .  A
O314        C323   1.273       .  A
O315        C325   1.274       .  A
O316        C324   1.276       .  A
O317        C326   1.290       .  A
O318        C327   1.256       .  A
O319        C326   1.263       .  A
O320        C327   1.287       .  A
O321        C328   1.292       .  A
O322        C328   1.260       .  A
C323        C365   1.503       .  S
C324        C461   1.501       .  S
C325        C333   1.512       .  S
C326        C861   1.519       .  S
C327        C349   1.476       .  S
C328        C781   1.516       .  S
C329        C330   1.412       .  A
C329        C334   1.413       .  A
C329        H336   1.084       .  S
C330        C331   1.421       .  A
C331        C338   1.509       .  S
C331        C332   1.412       .  A
C332        C333   1.410       .  A
C332        H337   1.081       .  S
C333        C334   1.420       .  A
C334        C335   1.508       .  S
C335        H339   1.110       .  S
C335        H340   1.110       .  S
C335        H341   1.105       .  S
C338        H342   1.109       .  S
C338        H343   1.110       .  S
C338        H344   1.109       .  S
C345        C346   1.410       .  A
C345       C1318   1.411   1_554  A
C345        H352   1.081       .  S
C346        C347   1.409       .  A
C347        C354   1.508       .  S
C347       C1316   1.403   1_554  A
C348        C349   1.412       .  A
C348       C1315   1.408       .  A
C348        H353   1.085       .  S
C349        C350   1.412       .  A
C350        C351   1.505       .  S
C350       C1313   1.412       .  A
C351        H355   1.111       .  S
C351        H356   1.110       .  S
C351        H357   1.110       .  S
C354        H358   1.110       .  S
C354        H359   1.106       .  S
C354        H360   1.111       .  S
C361        C362   1.412       .  A
C361        C366   1.403       .  A
C361        H368   1.084       .  S
C362        C363   1.414       .  A
C363        C370   1.505       .  S
C363        C364   1.420       .  A
C364        C365   1.416       .  A
C364        H369   1.084       .  S
C365        C366   1.414       .  A
C366        C367   1.510       .  S
C367        H371   1.111       .  S
C367        H372   1.110       .  S
C367        H373   1.109       .  S
C370        H374   1.110       .  S
C370        H375   1.110       .  S
C370        H376   1.111       .  S
C377        C378   1.406       .  A
C377        C382   1.403       .  A
C377        H384   1.085       .  S
C378        C379   1.405       .  A
C379        C386   1.508       .  S
C379        C380   1.396       .  A
C380        C381   1.408       .  A
C380        H385   1.085       .  S
C381        C382   1.409       .  A
C382        C383   1.505       .  S
C383        H387   1.109       .  S
C383        H388   1.111       .  S
C383        H389   1.108       .  S
C386        H390   1.111       .  S
C386        H391   1.111       .  S
C386        H392   1.111       .  S
C393        C394   1.408       .  A
C393        C398   1.411       .  A
C393        H400   1.084       .  S
C394        C395   1.411       .  A
C395        C402   1.505       .  S
C395        C396   1.412       .  A
C396        C397   1.410       .  A
C396        H401   1.084       .  S
C397        C398   1.411       .  A
C398        C399   1.506       .  S
C399        H403   1.111       .  S
C399        H404   1.110       .  S
C399        H405   1.110       .  S
C402        H406   1.110       .  S
C402        H407   1.110       .  S
C402        H408   1.111       .  S
C409        C410   1.414       .  A
C409        C414   1.414       .  A
C409        H416   1.083       .  S
C410        C411   1.424       .  A
C411        C418   1.508       .  S
C411        C412   1.412       .  A
C412        C413   1.406       .  A
C412        H417   1.085       .  S
C413        C414   1.412       .  A
C414        C415   1.506       .  S
C415        H419   1.111       .  S
C415        H420   1.110       .  S
C415        H421   1.110       .  S
C418        H422   1.109       .  S
C418        H423   1.110       .  S
C418        H424   1.111       .  S
C425        C426   1.411       .  A
C425        C430   1.407       .  A
C425        H432   1.081   1_455  S
C426        C427   1.412       .  A
C427        C434   1.505       .  S
C427        C428   1.410       .  A
C428        C429   1.412       .  A
C428        H433   1.084       .  S
C429        C430   1.410       .  A
C430        C431   1.506   1_455  S
C431        H435   1.109       .  S
C431        H436   1.110       .  S
C431        H437   1.110       .  S
C434        H438   1.110       .  S
C434        H439   1.110       .  S
C434        H440   1.111       .  S
C441        C442   1.405   1_655  A
C441       C1414   1.405   1_554  A
C441        H448   1.081       .  S
C442        C443   1.421   1_554  A
C443        C450   1.498   1_556  S
C443       C1412   1.422       .  A
C444        C445   1.409       .  A
C444       C1411   1.422   1_655  A
C444        H449   1.084   1_655  S
C445        C446   1.418       .  A
C446        C447   1.508       .  S
C446       C1409   1.402       .  A
C447        H451   1.111       .  S
C447        H452   1.110       .  S
C447        H453   1.109       .  S
C450        H454   1.109       .  S
C450        H455   1.106       .  S
C450        H456   1.111   1_554  S
C457        C458   1.402       .  A
C457        C462   1.413       .  A
C457        H464   1.084       .  S
C458        C459   1.421       .  A
C459        C466   1.507       .  S
C459        C460   1.415       .  A
C460        C461   1.404       .  A
C460        H465   1.084       .  S
C461        C462   1.424       .  A
C462        C463   1.509       .  S
C463        H467   1.111       .  S
C463        H468   1.111       .  S
C463        H469   1.109       .  S
C466        H470   1.110       .  S
C466        H471   1.109       .  S
C466        H472   1.111       .  S
C473        C474   1.406       .  A
C473        C478   1.401       .  A
C473        H480   1.085       .  S
C474        C475   1.409       .  A
C475        C482   1.508       .  S
C475        C476   1.401       .  A
C476        C477   1.405       .  A
C476        H481   1.085       .  S
C477        C478   1.407       .  A
C478        C479   1.507       .  S
C479        H483   1.110       .  S
C479        H484   1.110       .  S
C479        H485   1.110       .  S
C482        H486   1.110       .  S
C482        H487   1.110       .  S
C482        H488   1.111       .  S
C489        C490   1.410       .  A
C489        C494   1.416       .  A
C489        H496   1.084       .  S
C490        C491   1.424       .  A
C491        C498   1.510       .  S
C491        C492   1.408       .  A
C492        C493   1.401       .  A
C492        H497   1.085       .  S
C493        C494   1.414       .  A
C494        C495   1.505       .  S
C495        H499   1.111       .  S
C495        H500   1.110       .  S
C495        H501   1.111       .  S
C498        H502   1.109       .  S
C498        H503   1.110       .  S
C498        H504   1.111       .  S
C505        C506   1.405       .  A
C505        C510   1.408       .  A
C505        H512   1.084       .  S
C506        C507   1.426       .  A
C507        C514   1.501       .  S
C507        C508   1.409       .  A
C508        C509   1.397       .  A
C508        H513   1.084       .  S
C509        C510   1.419       .  A
C510        C511   1.507       .  S
C511        H515   1.110       .  S
C511        H516   1.110       .  S
C511        H517   1.110       .  S
C514        H518   1.108       .  S
C514        H519   1.109       .  S
C514        H520   1.111       .  S
C521        C522   1.415       .  A
C521        C526   1.404       .  A
C521        H528   1.082       .  S
C522        C523   1.414       .  A
C523        C530   1.506       .  S
C523        C524   1.408       .  A
C524        C525   1.407       .  A
C524        H529   1.084       .  S
C525        C526   1.404       .  A
C526        C527   1.505       .  S
C527        H531   1.111       .  S
C527        H532   1.110       .  S
C527        H533   1.110       .  S
C530        H534   1.110       .  S
C530        H535   1.110   1_545  S
C530        H536   1.111       .  S
C537        C538   1.414   1_546  A
C537       C1510   1.418       .  A
C537        H544   1.083   1_556  S
C538        C539   1.422   1_554  A
C539        C546   1.509   1_556  S
C539       C1508   1.403       .  A
C540        C541   1.404       .  A
C540       C1507   1.407       .  A
C540        H545   1.085       .  S
C541        C542   1.412   1_565  A
C542        C543   1.506       .  S
C542       C1505   1.415       .  A
C543        H547   1.111       .  S
C543        H548   1.106       .  S
C543        H549   1.110       .  S
C546        H550   1.110       .  S
C546        H551   1.110       .  S
C546        H552   1.111       .  S
C553        C554   1.412       .  A
C553        C558   1.405       .  A
C553        H560   1.084       .  S
C554        C555   1.420       .  A
C555        C562   1.506   1_565  S
C555        C556   1.412       .  A
C556        C557   1.405       .  A
C556        H561   1.084       .  S
C557        C558   1.408       .  A
C558        C559   1.508       .  S
C559        H563   1.111       .  S
C559        H564   1.110       .  S
C559        H565   1.110       .  S
C562        H566   1.110       .  S
C562        H567   1.110       .  S
C562        H568   1.111       .  S
C569        C570   1.397       .  A
C569        C574   1.410       .  A
C569        H576   1.085       .  S
C570        C571   1.418       .  A
C571        C578   1.507       .  S
C571        C572   1.409       .  A
C572        C573   1.409       .  A
C572        H577   1.084       .  S
C573        C574   1.427       .  A
C574        C575   1.498   1_565  S
C575        H579   1.111       .  S
C575        H580   1.110       .  S
C575        H581   1.097       .  S
C578        H582   1.110       .  S
C578        H583   1.110       .  S
C578        H584   1.109       .  S
C585        C586   1.414       .  A
C585        C590   1.412       .  A
C585        H592   1.083       .  S
C586        C587   1.419       .  A
C587        C594   1.506   1_565  S
C587        C588   1.414       .  A
C588        C589   1.408       .  A
C588        H593   1.084       .  S
C589        C590   1.410       .  A
C590        C591   1.506       .  S
C591        H595   1.110       .  S
C591        H596   1.110       .  S
C591        H597   1.110       .  S
C594        H598   1.110       .  S
C594        H599   1.110       .  S
C594        H600   1.111       .  S
C601        C602   1.398       .  A
C601        C606   1.410       .  A
C601        H608   1.084       .  S
C602        C603   1.436       .  A
C603        C610   1.512       .  S
C603        C604   1.390       .  A
C604        C605   1.386       .  A
C604        H609   1.085       .  S
C605        C606   1.429       .  A
C606        C607   1.510       .  S
C607        H611   1.111   1_565  S
C607        H612   1.109       .  S
C607        H613   1.111       .  S
C610        H614   1.111       .  S
C610        H615   1.109       .  S
C610        H616   1.099       .  S
C617        C618   1.416   1_645  A
C617        C622   1.410   1_655  A
C617        H624   1.081       .  S
C618        C619   1.418       .  A
C619        C626   1.507       .  S
C619        C620   1.418       .  A
C620        C621   1.417   1_565  A
C620        H625   1.083       .  S
C621        C622   1.416       .  A
C622        C623   1.509       .  S
C623        H627   1.111   1_455  S
C623        H628   1.110       .  S
C623        H629   1.107   1_455  S
C626        H630   1.111       .  S
C626        H631   1.110       .  S
C626        H632   1.111       .  S
C633        C634   1.400   1_556  A
C633       C1606   1.404       .  A
C633        H640   1.084   1_556  S
C634        C635   1.416   1_554  A
C635        C642   1.505   1_565  S
C635       C1604   1.416       .  A
C636        C637   1.405       .  A
C636       C1603   1.415   1_565  A
C636        H641   1.084   1_565  S
C637        C638   1.423       .  A
C638        C639   1.509   1_655  S
C638       C1601   1.405       .  A
C639        H643   1.111       .  S
C639        H644   1.111       .  S
C639        H645   1.108       .  S
C642        H646   1.110   1_556  S
C642        H647   1.108   1_556  S
C642        H648   1.111       .  S
C649        C650   1.417       .  A
C649        C654   1.399       .  A
C649        H656   1.083       .  S
C650        C651   1.416       .  A
C651        C658   1.506       .  S
C651        C652   1.416       .  A
C652        C653   1.412       .  A
C652        H657   1.084       .  S
C653        C654   1.407       .  A
C654        C655   1.510       .  S
C655        H659   1.111       .  S
C655        H660   1.110   1_655  S
C655        H661   1.108       .  S
C658        H662   1.110       .  S
C658        H663   1.110       .  S
C658        H664   1.111       .  S
C665        C666   1.407       .  A
C665        C670   1.414       .  A
C665        H672   1.084       .  S
C666        C667   1.412       .  A
C667        C674   1.507       .  S
C667        C668   1.408       .  A
C668        C669   1.408       .  A
C668        H673   1.084       .  S
C669        C670   1.418       .  A
C670        C671   1.506       .  S
C671        H675   1.111       .  S
C671        H676   1.110   1_655  S
C671        H677   1.108       .  S
C674        H678   1.110       .  S
C674        H679   1.110       .  S
C674        H680   1.111       .  S
C681        C682   1.401       .  A
C681        C686   1.416       .  A
C681        H688   1.084       .  S
C682        C683   1.420       .  A
C683        C690   1.510       .  S
C683        C684   1.403       .  A
C684        C685   1.405       .  A
C684        H689   1.084       .  S
C685        C686   1.430       .  A
C686        C687   1.507       .  S
C687        H691   1.111       .  S
C687        H692   1.110       .  S
C687        H693   1.110   1_655  S
C690        H694   1.109       .  S
C690        H695   1.110       .  S
C690        H696   1.110       .  S
C697        C698   1.394       .  A
C697        C702   1.390       .  A
C697        H704   1.086       .  S
C698        C699   1.419       .  A
C699        C706   1.505       .  S
C699        C700   1.407       .  A
C700        C701   1.400       .  A
C700        H705   1.084       .  S
C701        C702   1.417       .  A
C702        C703   1.509       .  S
C703        H707   1.110       .  S
C703        H708   1.109       .  S
C703        H709   1.111       .  S
C706        H710   1.110       .  S
C706        H711   1.109       .  S
C706        H712   1.109       .  S
C713        C714   1.414       .  A
C713        C718   1.412       .  A
C713        H720   1.084       .  S
C714        C715   1.410       .  A
C715        C722   1.506       .  S
C715        C716   1.413       .  A
C716        C717   1.421       .  A
C716        H721   1.083       .  S
C717        C718   1.415       .  A
C718        C719   1.506       .  S
C719        H723   1.110   1_545  S
C719        H724   1.110   1_545  S
C719        H725   1.111   1_545  S
C722        H726   1.110       .  S
C722        H727   1.110       .  S
C722        H728   1.111       .  S
C729        C730   1.413       .  A
C729        C734   1.416       .  A
C729        H736   1.081       .  S
C730        C731   1.410       .  A
C731        C738   1.506       .  S
C731        C732   1.415       .  A
C732        C733   1.420       .  A
C732        H737   1.083       .  S
C733        C734   1.417       .  A
C734        C735   1.507       .  S
C735        H739   1.111       .  S
C735        H740   1.110       .  S
C735        H741   1.111       .  S
C738        H742   1.110       .  S
C738        H743   1.110   1_545  S
C738        H744   1.111       .  S
C745        C746   1.402       .  A
C745        C750   1.409       .  A
C745        H752   1.084       .  S
C746        C747   1.419       .  A
C747        C754   1.510       .  S
C747        C748   1.393       .  A
C748        C749   1.397       .  A
C748        H753   1.086       .  S
C749        C750   1.421       .  A
C750        C751   1.507       .  S
C751        H755   1.109       .  S
C751        H756   1.109       .  S
C751        H757   1.110       .  S
C754        H758   1.111       .  S
C754        H759   1.110       .  S
C754        H760   1.110       .  S
C761        C762   1.403       .  A
C761        C766   1.405       .  A
C761        H768   1.085       .  S
C762        C763   1.413       .  A
C763        C770   1.507       .  S
C763        C764   1.410       .  A
C764        C765   1.411       .  A
C764        H769   1.083       .  S
C765        C766   1.424       .  A
C766        C767   1.510       .  S
C767        H771   1.111       .  S
C767        H772   1.109       .  S
C767        H773   1.110       .  S
C770        H774   1.110       .  S
C770        H775   1.110       .  S
C770        H776   1.109       .  S
C777        C778   1.394       .  A
C777        C782   1.411       .  A
C777        H784   1.084       .  S
C778        C779   1.426       .  A
C779        C786   1.508       .  S
C779        C780   1.417       .  A
C780        C781   1.404       .  A
C780        H785   1.084       .  S
C781        C782   1.438       .  A
C782        C783   1.512       .  S
C783        H787   1.111       .  S
C783        H788   1.110       .  S
C783        H789   1.110       .  S
C786        H790   1.108       .  S
C786        H791   1.110       .  S
C786        H792   1.111       .  S
C793        C794   1.407       .  A
C793        C798   1.417       .  A
C793        H800   1.084       .  S
C794        C795   1.430       .  A
C795        C802   1.510       .  S
C795        C796   1.414       .  A
C796        C797   1.400       .  A
C796        H801   1.084       .  S
C797        C798   1.423       .  A
C798        C799   1.509       .  S
C799        H803   1.111       .  S
C799        H804   1.111       .  S
C799        H805   1.109       .  S
C802        H806   1.109       .  S
C802        H807   1.110       .  S
C802        H808   1.111       .  S
C809        C810   1.401       .  A
C809        C814   1.414       .  A
C809        H816   1.084       .  S
C810        C811   1.418       .  A
C811        C818   1.508       .  S
C811        C812   1.407       .  A
C812        C813   1.408       .  A
C812        H817   1.084       .  S
C813        C814   1.427       .  A
C814        C815   1.503       .  S
C815        H819   1.111       .  S
C815        H820   1.105       .  S
C815        H821   1.110       .  S
C818        H822   1.110       .  S
C818        H823   1.110       .  S
C818        H824   1.109       .  S
C825        C826   1.410       .  A
C825        C830   1.411       .  A
C825        H832   1.084       .  S
C826        C827   1.412       .  A
C827        C834   1.510       .  S
C827        C828   1.396       .  A
C828        C829   1.405       .  A
C828        H833   1.083       .  S
C829        C830   1.410       .  A
C830        C831   1.505       .  S
C831        H835   1.111       .  S
C831        H836   1.110       .  S
C831        H837   1.110       .  S
C834        H838   1.104       .  S
C834        H839   1.110       .  S
C834        H840   1.111       .  S
C841        C842   1.421       .  A
C841        C846   1.417       .  A
C841        H848   1.083       .  S
C842        C843   1.420       .  A
C843        C850   1.508       .  S
C843        C844   1.414       .  A
C844        C845   1.415       .  A
C844        H849   1.084       .  S
C845        C846   1.411       .  A
C846        C847   1.505       .  S
C847        H851   1.111       .  S
C847        H852   1.110       .  S
C847        H853   1.110       .  S
C850        H854   1.111       .  S
C850        H855   1.109       .  S
C850        H856   1.111       .  S
C857        C858   1.417       .  A
C857        C862   1.417       .  A
C857        H864   1.084       .  S
C858        C859   1.411       .  A
C859        C866   1.508       .  S
C859        C860   1.411       .  A
C860        C861   1.422       .  A
C860        H865   1.082       .  S
C861        C862   1.414       .  A
C862        C863   1.505       .  S
C863        H867   1.111       .  S
C863        H868   1.110       .  S
C863        H869   1.110       .  S
C866        H870   1.110       .  S
C866        H871   1.110       .  S
C866        H872   1.111       .  S
C873        C874   1.396       .  A
C873        C878   1.395       .  A
C873        H880   1.085       .  S
C874        C875   1.422       .  A
C875        C882   1.506       .  S
C875        C876   1.408       .  A
C876        C877   1.400       .  A
C876        H881   1.084       .  S
C877        C878   1.419       .  A
C878        C879   1.508       .  S
C879        H883   1.111       .  S
C879        H884   1.111       .  S
C879        H885   1.109       .  S
C882        H886   1.109       .  S
C882        H887   1.110       .  S
C882        H888   1.109       .  S
C889        C890   1.403       .  A
C889        C894   1.416       .  A
C889        H896   1.084       .  S
C890        C891   1.418       .  A
C891        C898   1.509       .  S
C891        C892   1.405       .  A
C892        C893   1.408       .  A
C892        H897   1.084       .  S
C893        C894   1.428       .  A
C894        C895   1.507       .  S
C895        H899   1.111       .  S
C895        H900   1.110       .  S
C895        H901   1.107       .  S
C898        H902   1.110       .  S
C898        H903   1.110       .  S
C898        H904   1.109       .  S
C905        C906   1.415       .  A
C905        C910   1.418       .  A
C905        H912   1.084       .  S
C906        C907   1.406       .  A
C907        C914   1.508       .  S
C907        C908   1.401       .  A
C908        C909   1.414       .  A
C908        H913   1.084       .  S
C909        C910   1.410       .  A
C910        C911   1.503   1_455  S
C911        H915   1.111       .  S
C911        H916   1.110       .  S
C911        H917   1.110       .  S
C914        H918   1.110       .  S
C914        H919   1.110       .  S
C914        H920   1.110       .  S
C921        C922   1.420       .  A
C921        C926   1.411       .  A
C921        H928   1.084       .  S
C922        C923   1.409       .  A
C923        C930   1.506       .  S
C923        C924   1.414       .  A
C924        C925   1.422       .  A
C924        H929   1.083       .  S
C925        C926   1.412       .  A
C926        C927   1.507   1_455  S
C927        H931   1.111       .  S
C927        H932   1.110       .  S
C927        H933   1.110       .  S
C930        H934   1.110       .  S
C930        H935   1.110       .  S
C930        H936   1.111       .  S
C937        C938   1.392   1_655  A
C937        C942   1.404   1_655  A
C937        H944   1.084       .  S
C938        C939   1.427       .  A
C939        C946   1.503       .  S
C939        C940   1.411       .  A
C940        C941   1.395       .  A
C940        H945   1.084       .  S
C941        C942   1.430       .  A
C942        C943   1.506       .  S
C943        H947   1.110   1_455  S
C943        H948   1.111       .  S
C943        H949   1.108       .  S
C946        H950   1.110       .  S
C946        H951   1.106       .  S
C946        H952   1.108       .  S
C953        C954   1.403       .  A
C953        C958   1.408       .  A
C953        H960   1.084       .  S
C954        C955   1.411       .  A
C955        C962   1.510       .  S
C955        C956   1.396       .  A
C956        C957   1.403       .  A
C956        H961   1.085       .  S
C957        C958   1.413       .  A
C958        C959   1.505       .  S
C959        H963   1.111       .  S
C959        H964   1.110       .  S
C959        H965   1.110       .  S
C962        H966   1.106       .  S
C962        H967   1.109       .  S
C962        H968   1.109       .  S
C969        C970   1.541       .  S
C969        C975   1.539       .  S
C969        C973   1.541       .  S
C969       C1045   1.547       .  S
C971        C972   1.565       .  S
C971       C1133   1.513   1_554  S
C972        C976   1.574       .  S
C972        H978   1.110   1_554  S
C973        H979   1.086       .  S
C973        C974   1.372       .  D
C974       C1021   1.497       .  S
C976       C1249   1.516   1_554  S
C981        C982   1.533       .  S
C981        C987   1.542       .  S
C981        C985   1.539       .  S
C981       C1125   1.548       .  S
C982        H989   1.086       .  S
C982        C983   1.375       .  D
C983        C984   1.589       .  S
C983       C1049   1.535       .  S
C984        C988   1.576       .  S
C984        C986   1.567       .  S
C984        H990   1.110       .  S
C985        H991   1.087       .  S
C985        C986   1.371       .  D
C986       C1243   1.508       .  S
C987        H992   1.085       .  S
C987        C988   1.371       .  D
C988       C1025   1.529       .  S
C993        C997   1.545   1_554  S
C993       C1075   1.546   1_554  S
C994       H1001   1.087       .  S
C994        C995   1.363       .  D
C995        C996   1.565       .  S
C995       C1057   1.502       .  S
C996       C1000   1.564       .  S
C996       H1002   1.110       .  S
C997       H1003   1.086       .  S
C997        C998   1.376   1_556  D
C998       C1189   1.516       .  S
C999       H1004   1.086       .  S
C999       C1000   1.378       .  D
C1000      C1031   1.515       .  S
C1005      C1006   1.544       .  S
C1005      C1011   1.530       .  S
C1005      C1009   1.540       .  S
C1005      C1069   1.543       .  S
C1006      H1013   1.086       .  S
C1006      C1007   1.373       .  D
C1007      C1008   1.581       .  S
C1007      C1061   1.533       .  S
C1008      C1012   1.586       .  S
C1008      C1010   1.566       .  S
C1008      H1014   1.110       .  S
C1009      H1015   1.087       .  S
C1009      C1010   1.369       .  D
C1010      C1183   1.509       .  S
C1011      H1016   1.086       .  S
C1011      C1012   1.371       .  D
C1012      C1037   1.528       .  S
C1017      N1018   1.335       .  A
C1017      N1022   1.360       .  A
C1017      C1922   1.461       .  S
N1018      C1019   1.341       .  A
C1019      N1020   1.373       .  A
C1019      C1909   1.485       .  S
N1020      C1021   1.378       .  A
C1021      N1022   1.369       .  A
C1023      N1024   1.379       .  A
C1023      N1028   1.350       .  A
C1023      C1890   1.494       .  S
N1024      C1025   1.378       .  A
C1025      N1026   1.378       .  A
N1026      C1027   1.368       .  A
C1027      N1028   1.344       .  A
C1027      C1874   1.499       .  S
C1029      N1030   1.363       .  A
C1029      N1034   1.336       .  A
C1029      C1842   1.471       .  S
N1030      C1031   1.370       .  A
C1031      N1032   1.378       .  A
N1032      C1033   1.377       .  A
C1033      N1034   1.342       .  A
C1033      C1858   1.480       .  S
C1035      N1036   1.369       .  A
C1035      N1040   1.344       .  A
C1035      C1810   1.515       .  S
N1036      C1037   1.379       .  A
C1037      N1038   1.378       .  A
N1038      C1039   1.377       .  A
C1039      N1040   1.349       .  A
C1039      C1826   1.493       .  S
C1041      N1042   1.340       .  A
C1041      N1046   1.368       .  A
C1041      C1794   1.473       .  S
N1042      C1043   1.343       .  A
C1043      N1044   1.369       .  A
C1043      C1778   1.477       .  S
N1044      C1045   1.375       .  A
C1045      N1046   1.373       .  A
C1047      N1048   1.372       .  A
C1047      N1052   1.347       .  A
C1047      C1762   1.526       .  S
N1048      C1049   1.381       .  A
C1049      N1050   1.378       .  A
N1050      C1051   1.379       .  A
C1051      N1052   1.353       .  A
C1051      C1746   1.504       .  S
C1053      N1054   1.339       .  A
C1053      N1058   1.371       .  A
C1053      C1717   1.466       .  S
N1054      C1055   1.338       .  A
C1055      N1056   1.360       .  A
C1055      C1730   1.474       .  S
N1056      C1057   1.372       .  A
C1057      N1058   1.369       .  A
C1059      N1060   1.376       .  A
C1059      N1064   1.349       .  A
C1059      C1682   1.497       .  S
N1060      C1061   1.377       .  A
C1061      N1062   1.383       .  A
N1062      C1063   1.374       .  A
C1063      N1064   1.348       .  A
C1063      C1701   1.520       .  S
C1065      N1066   1.338       .  A
C1065      N1070   1.361       .  A
C1065      C1666   1.460       .  S
N1066      C1067   1.342       .  A
C1067      N1068   1.374       .  A
C1067      C1650   1.487       .  S
N1068      C1069   1.380       .  A
C1069      N1070   1.366       .  A
C1071      N1072   1.344       .  A
C1071      N1076   1.363       .  A
C1071      C1634   1.482       .  S
N1072      C1073   1.350       .  A
C1073      N1074   1.372       .  A
C1073      C1618   1.497       .  S
N1074      C1075   1.377       .  A
C1075      N1076   1.375       .  A
Zn1077     O1081   1.846   1_545  S
Zn1077     O1082   1.965   1_545  S
Zn1077     O1086   1.889       .  S
Zn1077     O1093   1.972       .  S
Zn1078     O1081   1.931       .  S
Zn1078     O1083   1.976       .  S
Zn1078     O1085   2.035       .  S
Zn1078     O1089   2.007       .  S
Zn1079     O1081   1.957   1_445  S
Zn1079     O1084   2.095   1_455  S
Zn1079     O1087   2.118       .  S
Zn1079     O1090   2.154   1_545  S
Zn1080     O1081   1.892       .  S
Zn1080     O1088   1.857   1_655  S
Zn1080     O1091   2.042       .  S
Zn1080     O1092   2.092       .  S
O1082      C1094   1.266       .  A
O1083      C1095   1.266       .  A
O1084      C1096   1.287       .  A
O1085      C1094   1.273       .  A
O1086      C1096   1.264       .  A
O1087      C1095   1.287   1_445  A
O1088      C1097   1.247       .  A
O1089      C1098   1.274       .  A
O1090      C1097   1.288       .  A
O1091      C1098   1.284       .  A
O1092      C1099   1.284       .  A
O1093      C1099   1.266   1_545  A
C1094      C1733   1.499   1_565  S
C1095      C1602   1.491       .  S
C1096      C1669   1.456       .  S
C1097      C1570   1.497       .  S
C1098      C1906   1.483   1_655  S
C1099      C1586   1.508       .  S
Zn1100     O1104   1.936       .  S
Zn1100     O1105   2.050   1_465  S
Zn1100     O1109   2.014       .  S
Zn1100     O1116   1.948   1_455  S
Zn1101     O1104   1.923   1_645  S
Zn1101     O1106   2.022   1_655  S
Zn1101     O1108   2.034       .  S
Zn1101     O1112   1.976       .  S
Zn1102     O1104   1.927       .  S
Zn1102     O1107   2.047       .  S
Zn1102     O1110   2.013   1_565  S
Zn1102     O1113   1.940       .  S
Zn1103     O1104   1.981   1_655  S
Zn1103     O1111   2.167       .  S
Zn1103     O1114   2.151       .  S
Zn1103     O1115   2.137       .  S
O1105      C1117   1.279       .  A
O1106      C1118   1.276       .  A
O1107      C1119   1.275       .  A
O1108      C1117   1.279       .  A
O1109      C1119   1.273       .  A
O1110      C1118   1.274       .  A
O1111      C1120   1.296   1_655  A
O1112      C1121   1.266       .  A
O1113      C1120   1.266       .  A
O1114      C1121   1.291   1_565  A
O1115      C1122   1.280       .  A
O1116      C1122   1.254       .  A
C1117      C1637   1.491       .  S
C1118      C1589   1.510       .  S
C1119      C1554   1.503       .  S
C1120      C1877   1.494       .  S
C1121      C1698   1.506       .  S
C1122      C1605   1.490       .  S
C1123      N1124   1.366       .  A
C1123      N1128   1.337       .  A
C1123      C1573   1.487       .  S
N1124      C1125   1.371       .  A
C1125      N1126   1.377       .  A
N1126      C1127   1.372       .  A
C1127      N1128   1.342       .  A
C1127      C1538   1.473       .  S
C1129      N1130   1.345       .  A
C1129      N1134   1.371       .  A
C1129      C1557   1.481       .  S
N1130      C1131   1.343       .  A
C1131      N1132   1.366       .  A
C1131      C1525   1.487       .  S
N1132      C1133   1.377       .  A
C1133      N1134   1.376       .  A
Zn1135     O1139   1.930       .  S
Zn1135     O1140   1.869       .  S
Zn1135     O1144   1.989       .  S
Zn1135     O1151   2.053       .  S
Zn1136     O1139   2.002   1_565  S
Zn1136     O1141   2.081   1_565  S
Zn1136     O1143   2.101   1_565  S
Zn1136     O1147   2.116       .  S
Zn1137     O1139   1.955       .  S
Zn1137     O1142   2.039       .  S
Zn1137     O1145   1.973       .  S
Zn1137     O1148   2.044       .  S
Zn1138     O1139   1.908   1_565  S
Zn1138     O1146   1.972   1_565  S
Zn1138     O1149   1.894       .  S
Zn1138     O1150   2.020       .  S
O1140      C1152   1.257       .  A
O1141      C1153   1.279       .  A
O1142      C1154   1.276       .  A
O1143      C1152   1.284       .  A
O1144      C1154   1.275       .  A
O1145      C1153   1.266       .  A
O1146      C1155   1.271       .  A
O1147      C1156   1.285       .  A
O1148      C1155   1.277       .  A
O1149      C1156   1.261       .  A
O1150      C1157   1.270   1_565  A
O1151      C1157   1.274       .  A
C1152      C1714   1.466       .  S
C1153      C1490   1.490       .  S
C1154      C1474   1.512       .  S
C1155      C1541   1.502   1_545  S
C1156      C1797   1.473       .  S
C1157      C1506   1.510   1_545  S
Zn1158     O1162   1.900       .  S
Zn1158     O1163   1.948   1_545  S
Zn1158     O1167   1.980       .  S
Zn1158     O1174   2.020   1_545  S
Zn1159     O1162   2.019   1_565  S
Zn1159     O1164   2.132   1_565  S
Zn1159     O1166   2.166       .  S
Zn1159     O1170   2.135       .  S
Zn1160     O1162   1.912       .  S
Zn1160     O1165   2.029       .  S
Zn1160     O1168   1.967       .  S
Zn1160     O1171   2.040       .  S
Zn1161     O1162   1.921       .  S
Zn1161     O1169   2.087       .  S
Zn1161     O1172   1.952   1_545  S
Zn1161     O1173   2.032   1_545  S
O1163      C1175   1.263       .  A
O1164      C1176   1.287       .  A
O1165      C1177   1.280       .  A
O1166      C1175   1.294       .  A
O1167      C1177   1.272       .  A
O1168      C1176   1.265       .  A
O1169      C1178   1.285       .  A
O1170      C1179   1.277       .  A
O1171      C1178   1.281       .  A
O1172      C1179   1.254       .  A
O1173      C1180   1.276       .  A
O1174      C1180   1.274       .  A
C1175      C1765   1.505       .  S
C1176      C1685   1.513       .  S
C1177      C1493   1.480       .  S
C1178      C1458   1.507       .  S
C1179      C1509   1.491       .  S
C1180      C1522   1.509       .  S
C1181      N1182   1.367       .  A
C1181      N1186   1.334       .  A
C1181      C1445   1.465       .  S
N1182      C1183   1.373       .  A
C1183      N1184   1.378       .  A
N1184      C1185   1.373       .  A
C1185      N1186   1.336       .  A
C1185      C1477   1.477       .  S
C1187      N1188   1.371       .  A
C1187      N1192   1.348       .  A
C1187      C1461   1.490       .  S
N1188      C1189   1.376   1_556  A
C1189      N1190   1.377   1_554  A
N1190      C1191   1.373       .  A
C1191      N1192   1.348       .  A
C1191      C1426   1.493       .  S
Zn1193     O1197   1.879       .  S
Zn1193     O1198   2.083       .  S
Zn1193     O1202   1.962       .  S
Zn1193     O1209   1.930       .  S
Zn1194     O1197   1.893       .  S
Zn1194     O1199   1.986       .  S
Zn1194     O1201   2.032       .  S
Zn1194     O1205   1.895   1_455  S
Zn1195     O1197   1.961       .  S
Zn1195     O1200   2.046       .  S
Zn1195     O1203   2.029       .  S
Zn1195     O1206   1.962       .  S
Zn1196     O1197   1.977   1_655  S
Zn1196     O1204   2.090   1_655  S
Zn1196     O1207   2.111       .  S
Zn1196     O1208   2.112       .  S
O1198      C1210   1.280       .  A
O1199      C1211   1.277       .  A
O1200      C1212   1.274       .  A
O1201      C1210   1.277       .  A
O1202      C1212   1.270       .  A
O1203      C1211   1.274       .  A
O1204      C1213   1.283       .  A
O1205      C1214   1.260       .  A
O1206      C1213   1.267       .  A
O1207      C1214   1.285       .  A
O1208      C1215   1.284   1_655  A
O1209      C1215   1.254       .  A
C1210      C1410   1.510   1_455  S
C1211      C1653   1.508   1_455  S
C1212      C1378   1.510       .  S
C1213      C1397   1.487       .  S
C1214      C1845   1.474       .  S
C1215      C1925   1.461       .  S
Zn1216     O1220   1.924       .  S
Zn1216     O1221   1.948   1_455  S
Zn1216     O1225   2.044       .  S
Zn1216     O1232   2.018       .  S
Zn1217     O1220   2.005   1_655  S
Zn1217     O1222   2.152   1_655  S
Zn1217     O1224   2.160       .  S
Zn1217     O1228   2.167       .  S
Zn1218     O1220   1.910       .  S
Zn1218     O1223   2.034       .  S
Zn1218     O1226   1.940       .  S
Zn1218     O1229   2.018       .  S
Zn1219     O1220   1.908   1_655  S
Zn1219     O1227   1.992   1_655  S
Zn1219     O1230   1.937       .  S
Zn1219     O1231   2.025       .  S
O1221      C1233   1.254       .  A
O1222      C1234   1.289       .  A
O1223      C1235   1.280       .  A
O1224      C1233   1.282       .  A
O1225      C1235   1.279       .  A
O1226      C1234   1.262       .  A
O1227      C1236   1.273       .  A
O1228      C1237   1.295       .  A
O1229      C1236   1.279       .  A
O1230      C1237   1.265       .  A
O1231      C1238   1.274       .  A
O1232      C1238   1.273   1_455  A
C1233      C1413   1.501       .  S
C1234      C1893   1.509       .  S
C1235      C1362   1.486       .  S
C1236      C1394   1.499       .  S
C1237      C1813   1.501       .  S
C1238      C1621   1.496       .  S
C1239      N1240   1.338       .  A
C1239      N1244   1.367       .  A
C1239      C1346   1.472       .  S
N1240      C1241   1.341       .  A
C1241      N1242   1.372       .  A
C1241      C1381   1.480       .  S
N1242      C1243   1.379       .  A
C1243      N1244   1.373       .  A
C1245      N1246   1.343       .  A
C1245      N1250   1.368       .  A
C1245      C1330   1.494       .  S
N1246      C1247   1.347       .  A
C1247      N1248   1.373       .  A
C1247      C1365   1.483       .  S
N1248      C1249   1.375       .  A
C1249      N1250   1.378       .  A
Zn1251     O1255   1.879       .  S
Zn1251     O1256   1.959       .  S
Zn1251     O1260   1.936       .  S
Zn1251     O1267   2.074       .  S
Zn1252     O1255   1.959       .  S
Zn1252     O1257   1.994       .  S
Zn1252     O1259   2.060       .  S
Zn1252     O1263   2.030       .  S
Zn1253     O1255   1.962       .  S
Zn1253     O1258   2.106       .  S
Zn1253     O1261   2.098       .  S
Zn1253     O1264   2.113       .  S
Zn1254     O1255   1.888       .  S
Zn1254     O1262   1.909       .  S
Zn1254     O1265   1.972       .  S
Zn1254     O1266   2.015       .  S
O1256      C1268   1.270       .  A
O1257      C1269   1.270       .  A
O1258      C1270   1.282       .  A
O1259      C1268   1.276       .  A
O1260      C1270   1.256       .  A
O1261      C1269   1.285       .  A
O1262      C1271   1.263       .  A
O1263      C1272   1.274       .  A
O1264      C1271   1.286       .  A
O1265      C1272   1.273       .  A
O1266      C1273   1.272       .  A
O1267      C1273   1.278       .  A
C1268      C1861   1.506       .  S
C1269      C1314   1.486       .  S
C1270      C1442   1.462       .  S
C1271      C1349   1.472       .  S
C1272      C1781   1.501       .  S
C1273      C1298   1.508       .  S
Zn1274     O1278   1.933       .  S
Zn1274     O1279   2.050       .  S
Zn1274     O1283   2.031       .  S
Zn1274     O1290   1.970       .  S
Zn1275     O1278   1.949       .  S
Zn1275     O1280   2.056       .  S
Zn1275     O1282   2.030       .  S
Zn1275     O1286   1.894       .  S
Zn1276     O1278   1.936       .  S
Zn1276     O1281   2.011       .  S
Zn1276     O1284   2.038       .  S
Zn1276     O1287   1.931       .  S
Zn1277     O1278   2.014       .  S
Zn1277     O1285   2.123       .  S
Zn1277     O1288   2.120       .  S
Zn1277     O1289   2.129       .  S
O1279      C1291   1.279       .  A
O1280      C1292   1.277       .  A
O1281      C1293   1.274       .  A
O1282      C1291   1.275       .  A
O1283      C1293   1.281       .  A
O1284      C1292   1.274       .  A
O1285      C1294   1.287       .  A
O1286      C1295   1.258       .  A
O1287      C1294   1.260       .  A
O1288      C1295   1.284       .  A
O1289      C1296   1.287       .  A
O1290      C1296   1.264       .  A
C1291      C1333   1.495       .  S
C1292      C1429   1.519       .  S
C1293      C1301   1.511       .  S
C1294      C1829   1.482       .  S
C1295      C1317   1.477       .  S
C1296      C1749   1.496       .  S
C1297      C1298   1.407       .  A
C1297      C1302   1.417       .  A
C1297      H1304   1.083       .  S
C1298      C1299   1.423       .  A
C1299      C1306   1.508       .  S
C1299      C1300   1.406       .  A
C1300      C1301   1.407       .  A
C1300      H1305   1.084       .  S
C1301      C1302   1.428       .  A
C1302      C1303   1.508       .  S
C1303      H1307   1.110       .  S
C1303      H1308   1.110       .  S
C1303      H1309   1.108       .  S
C1306      H1310   1.107       .  S
C1306      H1311   1.110       .  S
C1306      H1312   1.111       .  S
C1313      C1314   1.408       .  A
C1313      H1320   1.084       .  S
C1314      C1315   1.411       .  A
C1315      C1322   1.508       .  S
C1316      C1317   1.410       .  A
C1316      H1321   1.085       .  S
C1317      C1318   1.410       .  A
C1318      C1319   1.505       .  S
C1319      H1323   1.111       .  S
C1319      H1324   1.111       .  S
C1319      H1325   1.110       .  S
C1322      H1326   1.110       .  S
C1322      H1327   1.105       .  S
C1322      H1328   1.111       .  S
C1329      C1330   1.412       .  A
C1329      C1334   1.412       .  A
C1329      H1336   1.084       .  S
C1330      C1331   1.411       .  A
C1331      C1338   1.506       .  S
C1331      C1332   1.412       .  A
C1332      C1333   1.411       .  A
C1332      H1337   1.084       .  S
C1333      C1334   1.412       .  A
C1334      C1335   1.505       .  S
C1335      H1339   1.111       .  S
C1335      H1340   1.110       .  S
C1335      H1341   1.110       .  S
C1338      H1342   1.110       .  S
C1338      H1343   1.110       .  S
C1338      H1344   1.111       .  S
C1345      C1346   1.408       .  A
C1345      C1350   1.411       .  A
C1345      H1352   1.084       .  S
C1346      C1347   1.410       .  A
C1347      C1354   1.508       .  S
C1347      C1348   1.401       .  A
C1348      C1349   1.404       .  A
C1348      H1353   1.082       .  S
C1349      C1350   1.409       .  A
C1350      C1351   1.504       .  S
C1351      H1355   1.108       .  S
C1351      H1356   1.111       .  S
C1351      H1357   1.110       .  S
C1354      H1358   1.110       .  S
C1354      H1359   1.110       .  S
C1354      H1360   1.111       .  S
C1361      C1362   1.408       .  A
C1361      C1366   1.410       .  A
C1361      H1368   1.084       .  S
C1362      C1363   1.408       .  A
C1363      C1370   1.505       .  S
C1363      C1364   1.410       .  A
C1364      C1365   1.411       .  A
C1364      H1369   1.084       .  S
C1365      C1366   1.411       .  A
C1366      C1367   1.506       .  S
C1367      H1371   1.111       .  S
C1367      H1372   1.110       .  S
C1367      H1373   1.110       .  S
C1370      H1374   1.110       .  S
C1370      H1375   1.110       .  S
C1370      H1376   1.111       .  S
C1377      C1378   1.413       .  A
C1377      C1382   1.412       .  A
C1377      H1384   1.083       .  S
C1378      C1379   1.424       .  A
C1379      C1386   1.509       .  S
C1379      C1380   1.411       .  A
C1380      C1381   1.405       .  A
C1380      H1385   1.085       .  S
C1381      C1382   1.411       .  A
C1382      C1383   1.507       .  S
C1383      H1387   1.111       .  S
C1383      H1388   1.111       .  S
C1383      H1389   1.110       .  S
C1386      H1390   1.109       .  S
C1386      H1391   1.110       .  S
C1386      H1392   1.111       .  S
C1393      C1394   1.414       .  A
C1393      C1398   1.409       .  A
C1393      H1400   1.082   1_455  S
C1394      C1395   1.414       .  A
C1395      C1402   1.505       .  S
C1395      C1396   1.409       .  A
C1396      C1397   1.409       .  A
C1396      H1401   1.084       .  S
C1397      C1398   1.408       .  A
C1398      C1399   1.507   1_455  S
C1399      H1403   1.105       .  S
C1399      H1404   1.110       .  S
C1399      H1405   1.110       .  S
C1402      H1406   1.110       .  S
C1402      H1407   1.110       .  S
C1402      H1408   1.111       .  S
C1409      C1410   1.405       .  A
C1409      H1416   1.081       .  S
C1410      C1411   1.420   1_655  A
C1411      C1418   1.499       .  S
C1412      C1413   1.408   1_455  A
C1412      H1417   1.084       .  S
C1413      C1414   1.420       .  A
C1414      C1415   1.509       .  S
C1415      H1419   1.111       .  S
C1415      H1420   1.111       .  S
C1415      H1421   1.109       .  S
C1418      H1422   1.108       .  S
C1418      H1423   1.107       .  S
C1418      H1424   1.111       .  S
C1425      C1426   1.403       .  A
C1425      C1430   1.411       .  A
C1425      H1432   1.085       .  S
C1426      C1427   1.412       .  A
C1427      C1434   1.506   1_556  S
C1427      C1428   1.418       .  A
C1428      C1429   1.417       .  A
C1428      H1433   1.083       .  S
C1429      C1430   1.428       .  A
C1430      C1431   1.510       .  S
C1431      H1435   1.111       .  S
C1431      H1436   1.110       .  S
C1431      H1437   1.110       .  S
C1434      H1438   1.111       .  S
C1434      H1439   1.110       .  S
C1434      H1440   1.111       .  S
C1441      C1442   1.403       .  A
C1441      C1446   1.405       .  A
C1441      H1448   1.084       .  S
C1442      C1443   1.412       .  A
C1443      C1450   1.508       .  S
C1443      C1444   1.403       .  A
C1444      C1445   1.404       .  A
C1444      H1449   1.085       .  S
C1445      C1446   1.412       .  A
C1446      C1447   1.506       .  S
C1447      H1451   1.110       .  S
C1447      H1452   1.110       .  S
C1447      H1453   1.110       .  S
C1450      H1454   1.109       .  S
C1450      H1455   1.110       .  S
C1450      H1456   1.111       .  S
C1457      C1458   1.409       .  A
C1457      C1462   1.420       .  A
C1457      H1464   1.083       .  S
C1458      C1459   1.424       .  A
C1459      C1466   1.508       .  S
C1459      C1460   1.408       .  A
C1460      C1461   1.400       .  A
C1460      H1465   1.085       .  S
C1461      C1462   1.416       .  A
C1462      C1463   1.505   1_556  S
C1463      H1467   1.111       .  S
C1463      H1468   1.110       .  S
C1463      H1469   1.111       .  S
C1466      H1470   1.109       .  S
C1466      H1471   1.110       .  S
C1466      H1472   1.111       .  S
C1473      C1474   1.408       .  A
C1473      C1478   1.408       .  A
C1473      H1480   1.084       .  S
C1474      C1475   1.428       .  A
C1475      C1482   1.502       .  S
C1475      C1476   1.411       .  A
C1476      C1477   1.399       .  A
C1476      H1481   1.085       .  S
C1477      C1478   1.420       .  A
C1478      C1479   1.508       .  S
C1479      H1483   1.108       .  S
C1479      H1484   1.110       .  S
C1479      H1485   1.110       .  S
C1482      H1486   1.098       .  S
C1482      H1487   1.110       .  S
C1482      H1488   1.111       .  S
C1489      C1490   1.410       .  A
C1489      C1494   1.405       .  A
C1489      H1496   1.082       .  S
C1490      C1491   1.414       .  A
C1491      C1498   1.507       .  S
C1491      C1492   1.408       .  A
C1492      C1493   1.409       .  A
C1492      H1497   1.084       .  S
C1493      C1494   1.409       .  A
C1494      C1495   1.507       .  S
C1495      H1499   1.111       .  S
C1495      H1500   1.110       .  S
C1495      H1501   1.109       .  S
C1498      H1502   1.110       .  S
C1498      H1503   1.110       .  S
C1498      H1504   1.111       .  S
C1505      C1506   1.414   1_545  A
C1505      H1512   1.084       .  S
C1506      C1507   1.426       .  A
C1507      C1514   1.510       .  S
C1508      C1509   1.404       .  A
C1508      H1513   1.085       .  S
C1509      C1510   1.413   1_565  A
C1510      C1511   1.505       .  S
C1511      H1515   1.111       .  S
C1511      H1516   1.107       .  S
C1511      H1517   1.110       .  S
C1514      H1518   1.110       .  S
C1514      H1519   1.110       .  S
C1514      H1520   1.111       .  S
C1521      C1522   1.415       .  A
C1521      C1526   1.415       .  A
C1521      H1528   1.083       .  S
C1522      C1523   1.427       .  A
C1523      C1530   1.511       .  S
C1523      C1524   1.405       .  A
C1524      C1525   1.401       .  A
C1524      H1529   1.085       .  S
C1525      C1526   1.410       .  A
C1526      C1527   1.505       .  S
C1527      H1531   1.111   1_556  S
C1527      H1532   1.110   1_556  S
C1527      H1533   1.110   1_556  S
C1530      H1534   1.110       .  S
C1530      H1535   1.110       .  S
C1530      H1536   1.111       .  S
C1537      C1538   1.396       .  A
C1537      C1542   1.406       .  A
C1537      H1544   1.085       .  S
C1538      C1539   1.417       .  A
C1539      C1546   1.506       .  S
C1539      C1540   1.408       .  A
C1540      C1541   1.406       .  A
C1540      H1545   1.084       .  S
C1541      C1542   1.424       .  A
C1542      C1543   1.499       .  S
C1543      H1547   1.111       .  S
C1543      H1548   1.109   1_565  S
C1543      H1549   1.107       .  S
C1546      H1550   1.110       .  S
C1546      H1551   1.110       .  S
C1546      H1552   1.110       .  S
C1553      C1554   1.413       .  A
C1553      C1558   1.410       .  A
C1553      H1560   1.083       .  S
C1554      C1555   1.418       .  A
C1555      C1562   1.507       .  S
C1555      C1556   1.410       .  A
C1556      C1557   1.407       .  A
C1556      H1561   1.085       .  S
C1557      C1558   1.409       .  A
C1558      C1559   1.506       .  S
C1559      H1563   1.111       .  S
C1559      H1564   1.110       .  S
C1559      H1565   1.110       .  S
C1562      H1566   1.110       .  S
C1562      H1567   1.110   1_565  S
C1562      H1568   1.111       .  S
C1569      C1570   1.398       .  A
C1569      C1574   1.411       .  A
C1569      H1576   1.084   1_565  S
C1570      C1571   1.439       .  A
C1571      C1578   1.515       .  S
C1571      C1572   1.395       .  A
C1572      C1573   1.388       .  A
C1572      H1577   1.084       .  S
C1573      C1574   1.430       .  A
C1574      C1575   1.510       .  S
C1575      H1579   1.111   1_565  S
C1575      H1580   1.109       .  S
C1575      H1581   1.110       .  S
C1578      H1582   1.111       .  S
C1578      H1583   1.109       .  S
C1578      H1584   1.107       .  S
C1585      C1586   1.412   1_545  A
C1585      C1590   1.411   1_655  A
C1585      H1592   1.083       .  S
C1586      C1587   1.416   1_655  A
C1587      C1594   1.505       .  S
C1587      C1588   1.414       .  A
C1588      C1589   1.413   1_565  A
C1588      H1593   1.083       .  S
C1589      C1590   1.419       .  A
C1590      C1591   1.510   1_455  S
C1591      H1595   1.111       .  S
C1591      H1596   1.110   1_655  S
C1591      H1597   1.105       .  S
C1594      H1598   1.110       .  S
C1594      H1599   1.109       .  S
C1594      H1600   1.110       .  S
C1601      C1602   1.399       .  A
C1601      H1608   1.084   1_655  S
C1602      C1603   1.421   1_565  A
C1603      C1610   1.505       .  S
C1604      C1605   1.409       .  A
C1604      H1609   1.084   1_565  S
C1605      C1606   1.419       .  A
C1606      C1607   1.508       .  S
C1607      H1611   1.111       .  S
C1607      H1612   1.111   1_655  S
C1607      H1613   1.109       .  S
C1610      H1614   1.110       .  S
C1610      H1615   1.107       .  S
C1610      H1616   1.111       .  S
C1617      C1618   1.410       .  A
C1617      C1622   1.402       .  A
C1617      H1624   1.084       .  S
C1618      C1619   1.413       .  A
C1619      C1626   1.506       .  S
C1619      C1620   1.416       .  A
C1620      C1621   1.415       .  A
C1620      H1625   1.084       .  S
C1621      C1622   1.415       .  A
C1622      C1623   1.510       .  S
C1623      H1627   1.111       .  S
C1623      H1628   1.110   1_655  S
C1623      H1629   1.109       .  S
C1626      H1630   1.111   1_556  S
C1626      H1631   1.110       .  S
C1626      H1632   1.111   1_556  S
C1633      C1634   1.408       .  A
C1633      C1638   1.412       .  A
C1633      H1640   1.084       .  S
C1634      C1635   1.410       .  A
C1635      C1642   1.506       .  S
C1635      C1636   1.407       .  A
C1636      C1637   1.408       .  A
C1636      H1641   1.084       .  S
C1637      C1638   1.413       .  A
C1638      C1639   1.505       .  S
C1639      H1643   1.111       .  S
C1639      H1644   1.110   1_655  S
C1639      H1645   1.110       .  S
C1642      H1646   1.110       .  S
C1642      H1647   1.110       .  S
C1642      H1648   1.111       .  S
C1649      C1650   1.400       .  A
C1649      C1654   1.415       .  A
C1649      H1656   1.084       .  S
C1650      C1651   1.421       .  A
C1651      C1658   1.509       .  S
C1651      C1652   1.404       .  A
C1652      C1653   1.405       .  A
C1652      H1657   1.084       .  S
C1653      C1654   1.430       .  A
C1654      C1655   1.507       .  S
C1655      H1659   1.111       .  S
C1655      H1660   1.109       .  S
C1655      H1661   1.110   1_655  S
C1658      H1662   1.109       .  S
C1658      H1663   1.110       .  S
C1658      H1664   1.109       .  S
C1665      C1666   1.397       .  A
C1665      C1670   1.393       .  A
C1665      H1672   1.086       .  S
C1666      C1667   1.418       .  A
C1667      C1674   1.507       .  S
C1667      C1668   1.404       .  A
C1668      C1669   1.400       .  A
C1668      H1673   1.085       .  S
C1669      C1670   1.415       .  A
C1670      C1671   1.509       .  S
C1671      H1675   1.110       .  S
C1671      H1676   1.110       .  S
C1671      H1677   1.110       .  S
C1674      H1678   1.110       .  S
C1674      H1679   1.109       .  S
C1674      H1680   1.109       .  S
C1681      C1682   1.413       .  A
C1681      C1686   1.415       .  A
C1681      H1688   1.084       .  S
C1682      C1683   1.408       .  A
C1683      C1690   1.506       .  S
C1683      C1684   1.411       .  A
C1684      C1685   1.419       .  A
C1684      H1689   1.082       .  S
C1685      C1686   1.415       .  A
C1686      C1687   1.505       .  S
C1687      H1691   1.110       .  S
C1687      H1692   1.110   1_545  S
C1687      H1693   1.111       .  S
C1690      H1694   1.110       .  S
C1690      H1695   1.111       .  S
C1690      H1696   1.111       .  S
C1697      C1698   1.413       .  A
C1697      C1702   1.419       .  A
C1697      H1704   1.080       .  S
C1698      C1699   1.410       .  A
C1699      C1706   1.507       .  S
C1699      C1700   1.413       .  A
C1700      C1701   1.420       .  A
C1700      H1705   1.083       .  S
C1701      C1702   1.417       .  A
C1702      C1703   1.506       .  S
C1703      H1707   1.111       .  S
C1703      H1708   1.109       .  S
C1703      H1709   1.110       .  S
C1706      H1710   1.111       .  S
C1706      H1711   1.110   1_545  S
C1706      H1712   1.111       .  S
C1713      C1714   1.401       .  A
C1713      C1718   1.407       .  A
C1713      H1720   1.084       .  S
C1714      C1715   1.420       .  A
C1715      C1722   1.510       .  S
C1715      C1716   1.395       .  A
C1716      C1717   1.396       .  A
C1716      H1721   1.085       .  S
C1717      C1718   1.417       .  A
C1718      C1719   1.505       .  S
C1719      H1723   1.111       .  S
C1719      H1724   1.106       .  S
C1719      H1725   1.109       .  S
C1722      H1726   1.111       .  S
C1722      H1727   1.110       .  S
C1722      H1728   1.110       .  S
C1729      C1730   1.402       .  A
C1729      C1734   1.404       .  A
C1729      H1736   1.085       .  S
C1730      C1731   1.411       .  A
C1731      C1738   1.508       .  S
C1731      C1732   1.408       .  A
C1732      C1733   1.411       .  A
C1732      H1737   1.083       .  S
C1733      C1734   1.423       .  A
C1734      C1735   1.510       .  S
C1735      H1739   1.111       .  S
C1735      H1740   1.109       .  S
C1735      H1741   1.110       .  S
C1738      H1742   1.110       .  S
C1738      H1743   1.110       .  S
C1738      H1744   1.108       .  S
C1745      C1746   1.413       .  A
C1745      C1750   1.409       .  A
C1745      H1752   1.082       .  S
C1746      C1747   1.414       .  A
C1747      C1754   1.505       .  S
C1747      C1748   1.419       .  A
C1748      C1749   1.414       .  A
C1748      H1753   1.084       .  S
C1749      C1750   1.410       .  A
C1750      C1751   1.507       .  S
C1751      H1755   1.111       .  S
C1751      H1756   1.110       .  S
C1751      H1757   1.110       .  S
C1754      H1758   1.111       .  S
C1754      H1759   1.110       .  S
C1754      H1760   1.111       .  S
C1761      C1762   1.406       .  A
C1761      C1766   1.415       .  A
C1761      H1768   1.083       .  S
C1762      C1763   1.438       .  A
C1763      C1770   1.508       .  S
C1763      C1764   1.417       .  A
C1764      C1765   1.398       .  A
C1764      H1769   1.084       .  S
C1765      C1766   1.426       .  A
C1766      C1767   1.511       .  S
C1767      H1771   1.111       .  S
C1767      H1772   1.110       .  S
C1767      H1773   1.108       .  S
C1770      H1774   1.110       .  S
C1770      H1775   1.109       .  S
C1770      H1776   1.111       .  S
C1777      C1778   1.399       .  A
C1777      C1782   1.409       .  A
C1777      H1784   1.084       .  S
C1778      C1779   1.416       .  A
C1779      C1786   1.508       .  S
C1779      C1780   1.404       .  A
C1780      C1781   1.407       .  A
C1780      H1785   1.084       .  S
C1781      C1782   1.427       .  A
C1782      C1783   1.508       .  S
C1783      H1787   1.111       .  S
C1783      H1788   1.110       .  S
C1783      H1789   1.110       .  S
C1786      H1790   1.109       .  S
C1786      H1791   1.110       .  S
C1786      H1792   1.110       .  S
C1793      C1794   1.409       .  A
C1793      C1798   1.412       .  A
C1793      H1800   1.084       .  S
C1794      C1795   1.415       .  A
C1795      C1802   1.510       .  S
C1795      C1796   1.398       .  A
C1796      C1797   1.404       .  A
C1796      H1801   1.086       .  S
C1797      C1798   1.410       .  A
C1798      C1799   1.504       .  S
C1799      H1803   1.111       .  S
C1799      H1804   1.107       .  S
C1799      H1805   1.110       .  S
C1802      H1806   1.106       .  S
C1802      H1807   1.111       .  S
C1802      H1808   1.111       .  S
C1809      C1810   1.423       .  A
C1809      C1814   1.414       .  A
C1809      H1816   1.083       .  S
C1810      C1811   1.415       .  A
C1811      C1818   1.508       .  S
C1811      C1812   1.412       .  A
C1812      C1813   1.415       .  A
C1812      H1817   1.082       .  S
C1813      C1814   1.407       .  A
C1814      C1815   1.506       .  S
C1815      H1819   1.111       .  S
C1815      H1820   1.110       .  S
C1815      H1821   1.111       .  S
C1818      H1822   1.111       .  S
C1818      H1823   1.109       .  S
C1818      H1824   1.111       .  S
C1825      C1826   1.411       .  A
C1825      C1830   1.404       .  A
C1825      H1832   1.084       .  S
C1826      C1827   1.413       .  A
C1827      C1834   1.505       .  S
C1827      C1828   1.416       .  A
C1828      C1829   1.413       .  A
C1828      H1833   1.084       .  S
C1829      C1830   1.408       .  A
C1830      C1831   1.508       .  S
C1831      H1835   1.111       .  S
C1831      H1836   1.111       .  S
C1831      H1837   1.110       .  S
C1834      H1838   1.110       .  S
C1834      H1839   1.110       .  S
C1834      H1840   1.111       .  S
C1841      C1842   1.396       .  A
C1841      C1846   1.395       .  A
C1841      H1848   1.085       .  S
C1842      C1843   1.422       .  A
C1843      C1850   1.507       .  S
C1843      C1844   1.408       .  A
C1844      C1845   1.400       .  A
C1844      H1849   1.084       .  S
C1845      C1846   1.420       .  A
C1846      C1847   1.507       .  S
C1847      H1851   1.111       .  S
C1847      H1852   1.111       .  S
C1847      H1853   1.109       .  S
C1850      H1854   1.109       .  S
C1850      H1855   1.110       .  S
C1850      H1856   1.109       .  S
C1857      C1858   1.402       .  A
C1857      C1862   1.413       .  A
C1857      H1864   1.084       .  S
C1858      C1859   1.419       .  A
C1859      C1866   1.508       .  S
C1859      C1860   1.405       .  A
C1860      C1861   1.407       .  A
C1860      H1865   1.084       .  S
C1861      C1862   1.425       .  A
C1862      C1863   1.505       .  S
C1863      H1867   1.111       .  S
C1863      H1868   1.110       .  S
C1863      H1869   1.106       .  S
C1866      H1870   1.110       .  S
C1866      H1871   1.110       .  S
C1866      H1872   1.109       .  S
C1873      C1874   1.412       .  A
C1873      C1878   1.413       .  A
C1873      H1880   1.084       .  S
C1874      C1875   1.412       .  A
C1875      C1882   1.507       .  S
C1875      C1876   1.414       .  A
C1876      C1877   1.410       .  A
C1876      H1881   1.080       .  S
C1877      C1878   1.413       .  A
C1878      C1879   1.507       .  S
C1879      H1883   1.111       .  S
C1879      H1884   1.110       .  S
C1879      H1885   1.110       .  S
C1882      H1886   1.110       .  S
C1882      H1887   1.110       .  S
C1882      H1888   1.108       .  S
C1889      C1890   1.414       .  A
C1889      C1894   1.415       .  A
C1889      H1896   1.084       .  S
C1890      C1891   1.407       .  A
C1891      C1898   1.506       .  S
C1891      C1892   1.410       .  A
C1892      C1893   1.419       .  A
C1892      H1897   1.084       .  S
C1893      C1894   1.412       .  A
C1894      C1895   1.505       .  S
C1895      H1899   1.111   1_455  S
C1895      H1900   1.109   1_455  S
C1895      H1901   1.111       .  S
C1898      H1902   1.110       .  S
C1898      H1903   1.110       .  S
C1898      H1904   1.111       .  S
C1905      C1906   1.394       .  A
C1905      C1910   1.404       .  A
C1905      H1912   1.084   1_455  S
C1906      C1907   1.425       .  A
C1907      C1914   1.500       .  S
C1907      C1908   1.406       .  A
C1908      C1909   1.393       .  A
C1908      H1913   1.084       .  S
C1909      C1910   1.426       .  A
C1910      C1911   1.507       .  S
C1911      H1915   1.110   1_455  S
C1911      H1916   1.111       .  S
C1911      H1917   1.109       .  S
C1914      H1918   1.110       .  S
C1914      H1919   1.106       .  S
C1914      H1920   1.108       .  S
C1921      C1922   1.405       .  A
C1921      C1926   1.409       .  A
C1921      H1928   1.084       .  S
C1922      C1923   1.411       .  A
C1923      C1930   1.510       .  S
C1923      C1924   1.396       .  A
C1924      C1925   1.403       .  A
C1924      H1929   1.084       .  S
C1925      C1926   1.412       .  A
C1926      C1927   1.505       .  S
C1927      H1931   1.111       .  S
C1927      H1932   1.110       .  S
C1927      H1933   1.110       .  S
C1930      H1934   1.107       .  S
C1930      H1935   1.110       .  S
C1930      H1936   1.109       .  S
