geometry optimzed in LAMMPS
_audit_creation_date              2020-11-30 
_audit_creation_method            'lammps2cif' 
_symmetry_space_group_name_H-M    'P1' 
_symmetry_Int_Tables_number       1 
_symmetry_cell_setting            triclinic 
loop_ 
_symmetry_equiv_pos_as_xyz 
  x,y,z 
_cell_length_a                    34.74922154 
_cell_length_b                    34.08830562377557 
_cell_length_c                    30.420120408305095 
_cell_angle_alpha                 95.30493994639842 
_cell_angle_beta                  92.32710184760042 
_cell_angle_gamma                 87.5382818618722 
loop_ 
_atom_site_label 
_atom_site_type_symbol 
_atom_site_fract_x 
_atom_site_fract_y 
_atom_site_fract_z 
_atom_site_charge 
C1          C  0.48592220  0.23169351  0.02298135     0.02900
C2          C  0.44976189  0.24661600  0.03687940    -0.13300
C3          C  0.42801683  0.22665631  0.56486465     0.00400
C4          C  0.44262468  0.18989780  0.57838558    -0.11800
C5          C  0.47996223  0.17532997  0.56645810     0.02900
C6          C  0.50145451  0.19715690  0.03967768    -0.11200
H7          H  0.43700104  0.27258337  0.02322722     0.08500
H8          H  0.42518754  0.17277303  0.59761653     0.06000
H9          H  0.52959071  0.18556535  0.02957167     0.05800
C10         C  0.44576957  0.18365645  0.24330586     0.02900
C11         C  0.40862843  0.19621584  0.25531774    -0.13300
C12         C  0.39733216  0.19608818  0.29945314     0.00400
C13         C  0.42138152  0.17714553  0.32993647    -0.11800
C14         C  0.45736798  0.16147714  0.31638534     0.02500
C15         C  0.46947545  0.16542760  0.27399257    -0.11200
H16         H  0.39024642  0.21046753  0.23141075     0.08500
H17         H  0.41308886  0.17603331  0.36373346     0.06000
H18         H  0.49871032  0.15577118  0.26596703     0.05800
C19         C  0.40130591  0.45516737  0.00658386     0.02900
C20         C  0.43212656  0.47466282  0.02861774    -0.13300
C21         C  0.44052967  0.47205814  0.07381978     0.00400
C22         C  0.42025505  0.44549898  0.09665694    -0.11800
C23         C  0.39133633  0.42272885  0.07366934     0.02900
C24         C  0.38172721  0.42867137  0.02938886    -0.11200
H25         H  0.44863235  0.49411582  0.01117759     0.08500
H26         H  0.42641289  0.44302733  0.13149257     0.06000
H27         H  0.35716658  0.41384850  0.01363673     0.05800
C28         C  0.39254544  0.47194211  0.25567736     0.02900
C29         C  0.37972809  0.43627217  0.26840149    -0.13300
C30         C  0.39384852  0.42086467  0.30723492     0.00400
C31         C  0.42332834  0.43940725  0.33286008    -0.11800
C32         C  0.43710537  0.47477383  0.32062501     0.02900
C33         C  0.42073068  0.49144351  0.28307667    -0.11200
H34         H  0.35900068  0.41942740  0.24796194     0.08500
H35         H  0.43573685  0.42623079  0.36154402     0.06000
H36         H  0.43137200  0.51898989  0.27451413     0.05800
O37         O  0.46233411  0.03695331  0.08514657    -0.81200
O38         O  0.10149199  0.13523557  0.10586117    -0.65800
O39         O  0.03897614  0.04728570  0.07557033    -1.12400
C40         C  0.05263500  0.02820813  0.22420459     1.05700
O41         O  0.14343681  0.10303012  0.14746170    -0.79100
O42         O  0.13046044  0.02441563  0.14945102    -0.66600
Ni43       Ni  0.99361977  0.05176378  0.53988202     1.34900
C44         C  0.11215744  0.99569736  0.13035165     0.84500
O45         O  0.07464330  0.09894988  0.52879752    -0.79600
O46         O  0.02463344  0.06609029  0.49428149    -0.89900
C47         C  0.13515302  0.13050316  0.12238905     0.84000
O48         O  0.47833305  0.10621086  0.05248981    -0.68100
O49         O  0.08572700  0.04273627  0.22217866    -0.87400
C50         C  0.99525531  0.13496694  0.07305299     0.84900
C51         C  0.05542585  0.08531002  0.49455382     1.06400
H52         H  0.04956906  0.10023453  0.16458218     0.38200
O53         O  0.06469786  0.07972819  0.14890603    -1.10000
O54         O  0.07539087  0.99597611  0.12616578    -0.66700
Ni55       Ni  0.03299340  0.03472259  0.13395273     1.26300
O56         O  0.02776808  0.13101351  0.09338104    -0.66900
O57         O  0.02808336  0.02396666  0.19262276    -0.79200
C58         C  0.46714900  0.50172795  0.09515195     0.84300
O59         O  0.99824105  0.49243322  0.11589617    -0.66400
Ni60       Ni  0.11219280  0.07207694  0.18243380     1.27400
Ni61       Ni  0.06956807  0.09155204  0.08952247     1.26100
H62         H  0.05505983  0.02694368  0.06039499     0.38800
O63         O  0.00700656  0.15565267  0.37090451    -0.81200
O64         O  0.13275336  0.01087164  0.38692174    -0.65800
O65         O  0.06303125  0.09510827  0.35312381    -1.12400
C66         C  0.47316215  0.99090969  0.34012826     1.05700
O67         O  0.10470996  0.48770731  0.32680636    -0.79100
O68         O  0.04264654  0.98745461  0.27993928    -0.66600
Ni69       Ni  0.06152222  0.14566135  0.38489032     1.34900
C70         C  0.04088084  0.02147717  0.26719029     0.84500
O71         O  0.14090737  0.08623546  0.36613720    -0.79600
O72         O  0.11631560  0.14206161  0.39927541    -0.89900
C73         C  0.12902795  0.48250036  0.35720628     0.84000
O74         O  0.04926418  0.12176581  0.43529758    -0.68100
O75         O  0.00133553  0.46669409  0.34718585    -0.87400
C76         C  0.06758687  0.09379911  0.45245882     0.84900
C77         C  0.14161062  0.12328645  0.37547880     1.06400
H78         H  0.04635664  0.02101123  0.40295739     0.38200
O79         O  0.05253327  0.02492022  0.37302115    -1.10000
O80         O  0.03182542  0.05179881  0.29156660    -0.66700
Ni81       Ni  0.01865238  0.06309222  0.35090558     1.26300
O82         O  0.09396345  0.07186370  0.43370541    -0.66900
O83         O  0.47610563  0.02838825  0.34286060    -0.79200
C84         C  0.48360575  0.13841020  0.34278348     0.84300
O85         O  0.48605574  0.10225595  0.32989079    -0.66400
Ni86       Ni  0.05428003  0.47553167  0.33865705     1.27400
Ni87       Ni  0.09829532  0.05483322  0.37180878     1.26100
H88         H  0.07008250  0.10024707  0.32385362     0.38800
C89         C  0.14128560  0.41580198  0.04210150     0.02900
C90         C  0.12488592  0.45009504  0.06422538    -0.13300
C91         C  0.13385720  0.46092497  0.10896817     0.00400
C92         C  0.16223318  0.43831805  0.13149141    -0.11800
C93         C  0.17840400  0.40293755  0.11025618     0.02900
C94         C  0.16647898  0.39166554  0.06632274    -0.11200
H95         H  0.10528801  0.46921818  0.04667644     0.08500
H96         H  0.17112222  0.44774803  0.16520735     0.06000
H97         H  0.17853241  0.36446686  0.05037343     0.05800
C98         C  0.15199059  0.37987120  0.31044873     0.02900
C99         C  0.13132440  0.41395367  0.32548186    -0.13300
C100        C  0.14800271  0.44302710  0.35572808     0.00400
C101        C  0.18405783  0.43504100  0.37583570    -0.11800
C102        C  0.20343412  0.39897796  0.36340423     0.02900
C103        C  0.18785715  0.37221425  0.33028594    -0.11200
H104        H  0.10273228  0.41895223  0.31098835     0.08500
H105        H  0.19776963  0.45715117  0.39838022     0.06000
H106        H  0.20465603  0.34615440  0.31852982     0.05800
C107        C  0.20587215  0.13708319  0.03573924     0.02900
C108        C  0.22337701  0.17256699  0.04821645    -0.13300
C109        C  0.21214810  0.19789390  0.08547502     0.00400
C110        C  0.18332295  0.18503261  0.11229656    -0.11800
C111        C  0.16654473  0.14783732  0.10024806     0.02900
C112        C  0.17751821  0.12524588  0.06185863    -0.11200
H113        H  0.24653595  0.18015659  0.02823588     0.08500
H114        H  0.17402051  0.20335007  0.14120556     0.06000
H115        H  0.16311087  0.09806377  0.05183631     0.05800
C116        C  0.20726811  0.14734629  0.28745890     0.02900
C117        C  0.22727990  0.17846412  0.30965763    -0.13300
C118        C  0.21749972  0.19471438  0.35209032     0.00400
C119        C  0.18801303  0.17834491  0.37389851    -0.11800
C120        C  0.17051370  0.14436627  0.35388179     0.02900
C121        C  0.17925813  0.13013182  0.31030265    -0.11200
H122        H  0.25054995  0.19084937  0.29353396     0.08500
H123        H  0.18003558  0.19072519  0.40648993     0.06000
H124        H  0.16340437  0.10594202  0.29389439     0.05800
O125        O  0.25388601  0.24322461  0.06108709    -0.81200
O126        O  0.36488134  0.36011536  0.07053996    -0.65800
O127        O  0.30909163  0.27752296  0.10821724    -1.12400
C128        C  0.21302876  0.38100026  0.12801309     1.05700
O129        O  0.35150137  0.40143593  0.12943274    -0.79100
O130        O  0.30648277  0.37214599  0.19028901    -0.66600
Ni131      Ni  0.30715283  0.23056032  0.06993405     1.34900
C132        C  0.29468023  0.34075810  0.20394297     0.84500
O133        O  0.38216538  0.28126894  0.07468128    -0.79600
O134        O  0.36159263  0.21960459  0.57810938    -0.89900
C135        C  0.36885146  0.39303575  0.09324593     0.84000
O136        O  0.31552922  0.24677175  0.51200158    -0.68100
O137        O  0.24070972  0.40133244  0.14558267    -0.87400
C138        C  0.31344293  0.28122523  0.49966147     0.84900
C139        C  0.38833707  0.24352608  0.07423916     1.06400
H140        H  0.28125654  0.35814644  0.07295425     0.38200
O141        O  0.29237640  0.35000154  0.10045305    -1.10000
O142        O  0.27355520  0.31635513  0.18012007    -0.66700
Ni143      Ni  0.26142830  0.30871791  0.11613446     1.26300
O144        O  0.31803428  0.31128902  0.52696606    -0.66900
O145        O  0.21587943  0.34337913  0.11931281    -0.79200
C146        C  0.23206922  0.23657247  0.09153451     0.84300
O147        O  0.23093951  0.26249380  0.12477361    -0.66400
Ni148      Ni  0.29614905  0.39789118  0.13763153     1.27400
Ni149      Ni  0.33778029  0.31728281  0.08789251     1.26100
H150        H  0.31990065  0.27106456  0.13654032     0.38800
O151        O  0.35478875  0.24907963  0.28728080    -0.81200
O152        O  0.26743873  0.39009126  0.34885739    -0.65800
O153        O  0.34452205  0.30885541  0.34752256    -1.12400
C154        C  0.23853718  0.22962778  0.37010270     1.05700
O155        O  0.24888085  0.36856462  0.40966912    -0.79100
O156        O  0.26681628  0.30221105  0.44849867    -0.66600
Ni157      Ni  0.37587834  0.29971387  0.29814942     1.34900
C158        C  0.30028668  0.28642578  0.45344469     0.84500
O159        O  0.34297300  0.38784733  0.33320977    -0.79600
O160        O  0.39531504  0.35189646  0.30816151    -0.89900
C161        C  0.24262173  0.39003361  0.37804892     0.84000
O162        O  0.34366050  0.31614229  0.25030321    -0.68100
O163        O  0.21978286  0.26072731  0.38573014    -0.87400
C164        C  0.31000934  0.33161471  0.24828061     0.84900
C165        C  0.37711094  0.38468183  0.31855220     1.06400
H166        H  0.25780691  0.30194899  0.32793361     0.38200
O167        O  0.27244272  0.30813049  0.35517005    -1.10000
O168        O  0.32108243  0.27352827  0.42093546    -0.66700
Ni169      Ni  0.31078008  0.26733041  0.35692590     1.26300
O170        O  0.29152630  0.34275514  0.28279112    -0.66900
O171        O  0.27468744  0.22793907  0.36355084    -0.79200
C172        C  0.36549623  0.22373008  0.31340366     0.84300
O173        O  0.35151547  0.22702936  0.35161619    -0.66400
Ni174      Ni  0.23485301  0.31493651  0.39878002     1.27400
Ni175      Ni  0.30667235  0.34973431  0.34559315     1.26100
H176        H  0.36101781  0.31415997  0.37355984     0.38800
C177        C  0.37544922  0.48922473  0.21518476    -0.03600
C178        C  0.33801042  0.47965329  0.19921985    -0.09400
C179        C  0.31929035  0.99999412  0.16645455    -0.17100
C180        C  0.33669612  0.03139615  0.14984955     0.25100
C181        C  0.37502571  0.03922562  0.16228757    -0.18700
C182        C  0.39462836  0.51763090  0.19397566    -0.07600
C183        C  0.31123508  0.06115782  0.13277812    -0.14100
C184        C  0.28341508  0.08327798  0.13719596    -0.13800
C185        C  0.25287719  0.10108058  0.16362648     0.25000
C186        C  0.25114568  0.14175837  0.17477505    -0.19200
C187        C  0.23263100  0.15727249  0.21287145    -0.07700
C188        C  0.21739868  0.13208176  0.24155428    -0.03700
C189        C  0.21585884  0.09163515  0.22750329    -0.09100
C190        C  0.23305592  0.07643076  0.18852546    -0.16700
H191        H  0.32136155  0.45869847  0.21404162     0.11400
H192        H  0.28943572  0.99396905  0.15766375     0.10700
H193        H  0.38884864  0.06368493  0.14993973     0.10700
H194        H  0.42404603  0.52478342  0.20319363     0.11200
H195        H  0.26648971  0.16118428  0.15601000     0.11300
H196        H  0.23258582  0.18881963  0.22126597     0.11200
H197        H  0.20440635  0.07107725  0.24816027     0.11400
H198        H  0.23448409  0.04476824  0.18048451     0.10200
C199        C  0.38528149  0.46766658  0.96340290    -0.03600
C200        C  0.38764371  0.00725526  0.95405024    -0.09400
C201        C  0.36319848  0.02274441  0.92202515    -0.17100
C202        C  0.33531122  0.99939669  0.89963960     0.25100
C203        C  0.33577434  0.45907879  0.90469951    -0.18700
C204        C  0.36140302  0.44295725  0.93547037    -0.07600
C205        C  0.30001837  0.01901505  0.88640089    -0.14100
C206        C  0.27170359  0.03936479  0.89487309    -0.13800
C207        C  0.24693453  0.06314043  0.92406473     0.25000
C208        C  0.24387239  0.10400282  0.92229694    -0.19200
C209        C  0.22919882  0.12814335  0.95792590    -0.07700
C210        C  0.21799530  0.11165879  0.99600595    -0.03700
C211        C  0.22008975  0.07044561  0.99671279    -0.09100
C212        C  0.23426893  0.04644734  0.96096674    -0.16700
H213        H  0.40503402  0.02780825  0.97448283     0.11400
H214        H  0.36261998  0.05423508  0.91916680     0.10700
H215        H  0.31365159  0.44104120  0.88849601     0.10700
H216        H  0.35976898  0.41199043  0.94009997     0.11200
H217        H  0.25467158  0.11732925  0.89449410     0.11300
H218        H  0.22777619  0.15973357  0.95622695     0.11200
H219        H  0.21275715  0.05673440  0.02581317     0.11400
H220        H  0.23784380  0.01496999  0.96343510     0.10200
C221        C  0.13720046  0.35404722  0.27206404    -0.03600
C222        C  0.14179584  0.31285244  0.27129785    -0.09400
C223        C  0.12552043  0.28864271  0.23653456    -0.17100
C224        C  0.10455283  0.30524812  0.20209408     0.25100
C225        C  0.10148144  0.34621739  0.20139263    -0.18700
C226        C  0.11792013  0.37050744  0.23600941    -0.07600
C227        C  0.07965824  0.28075822  0.17372685    -0.14100
C228        C  0.05336969  0.26009875  0.16162459    -0.13800
C229        C  0.01975438  0.23761671  0.16425178     0.25000
C230        C  0.02403553  0.19699849  0.16708064    -0.19200
C231        C  0.99535758  0.17707244  0.18563158    -0.07700
C232        C  0.46373817  0.19829875  0.20485539    -0.03700
C233        C  0.45740596  0.23813595  0.19692023    -0.09100
C234        C  0.48530914  0.25761854  0.17654764    -0.16700
H235        H  0.15635317  0.29932856  0.29855887     0.11400
H236        H  0.12737518  0.25695364  0.23785372     0.10700
H237        H  0.08482518  0.35940000  0.17527456     0.10700
H238        H  0.11478190  0.40217104  0.23505176     0.11200
H239        H  0.05095260  0.18144680  0.15876317     0.11300
H240        H  0.00030179  0.14612907  0.19013734     0.11200
H241        H  0.43359383  0.25563788  0.21134487     0.11400
H242        H  0.48197994  0.28925100  0.17526522     0.10200
C243        C  0.50530659  0.25064031  0.98804823    -0.03600
C244        C  0.50116283  0.29163407  0.98590817    -0.09400
C245        C  0.51682573  0.30937911  0.95171090    -0.17100
C246        C  0.03811272  0.28688424  0.91963831     0.25100
C247        C  0.04335933  0.24605438  0.42171715    -0.18700
C248        C  0.52650544  0.22789748  0.45529863    -0.07600
C249        C  0.06209267  0.30776390  0.89315554    -0.14100
C250        C  0.08387976  0.33385430  0.89056043    -0.13800
C251        C  0.10391118  0.36577021  0.91390636     0.25000
C252        C  0.14206139  0.35912354  0.92857525    -0.19200
C253        C  0.15582666  0.37886441  0.96806017    -0.07700
C254        C  0.13088974  0.40395613  0.99452537    -0.03700
C255        C  0.09424767  0.41412211  0.97632334    -0.09100
C256        C  0.08123433  0.39565355  0.93595263    -0.16700
H257        H  0.48648599  0.31032075  0.01120529     0.11400
H258        H  0.51417898  0.34118487  0.95178546     0.10700
H259        H  0.06085496  0.22850436  0.39796984     0.10700
H260        H  0.02986424  0.19626634  0.45543920     0.11200
H261        H  0.16014387  0.33607422  0.41200169     0.11300
H262        H  0.18508305  0.37204033  0.97925390     0.11200
H263        H  0.07388786  0.43328541  0.99478505     0.11400
H264        H  0.05145362  0.40080147  0.92524352     0.10200
C265        C  0.48607276  0.23150772  0.52303238     0.02900
C266        C  0.44989349  0.24644191  0.53687205    -0.13300
C267        C  0.42790792  0.22678254  0.06484483     0.00400
C268        C  0.44251279  0.18998446  0.07825757    -0.11800
C269        C  0.47984786  0.17543746  0.06629868     0.02900
C270        C  0.50157327  0.19698617  0.53977948    -0.11200
H271        H  0.43714269  0.27238992  0.52317282     0.08500
H272        H  0.42507832  0.17281734  0.09744322     0.06000
H273        H  0.52970910  0.18536822  0.52970469     0.05800
C274        C  0.44579213  0.18352149  0.74326804     0.02900
C275        C  0.40869421  0.19626055  0.75533923    -0.13300
C276        C  0.39733248  0.19601846  0.79945589     0.00400
C277        C  0.42131602  0.17698735  0.82990290    -0.11800
C278        C  0.45725960  0.16125077  0.81634321     0.02500
C279        C  0.46938982  0.16514751  0.77394472    -0.11200
H280        H  0.39034862  0.21059907  0.73147349     0.08500
H281        H  0.41299476  0.17583062  0.86368321     0.06000
H282        H  0.49859173  0.15535542  0.76594599     0.05800
C283        C  0.40133156  0.45500171  0.50660813     0.02900
C284        C  0.43212914  0.47457790  0.52862754    -0.13300
C285        C  0.44064898  0.47189759  0.57381055     0.00400
C286        C  0.42044048  0.44531130  0.59666725    -0.11800
C287        C  0.39149616  0.42256217  0.57373152     0.02900
C288        C  0.38182790  0.42849509  0.52947387    -0.11200
H289        H  0.44858547  0.49407376  0.51119542     0.08500
H290        H  0.42666926  0.44280297  0.63148310     0.06000
H291        H  0.35726042  0.41363688  0.51380138     0.05800
C292        C  0.39298607  0.47158960  0.75523454     0.02900
C293        C  0.38016274  0.43590064  0.76793367    -0.13300
C294        C  0.39417828  0.42053660  0.80684744     0.00400
C295        C  0.42357760  0.43914201  0.83255581    -0.11800
C296        C  0.43732825  0.47454035  0.82037150     0.02900
C297        C  0.42102313  0.49117918  0.78276962    -0.11200
H298        H  0.35949415  0.41903104  0.74743328     0.08500
H299        H  0.43593217  0.42600171  0.86128821     0.06000
H300        H  0.43162240  0.51876175  0.77425231     0.05800
O301        O  0.46244044  0.03678161  0.58530336    -0.81200
O302        O  0.10168150  0.13499451  0.60569671    -0.65800
O303        O  0.03904985  0.04712570  0.57552472    -1.12400
C304        C  0.05271443  0.02812282  0.72416319     1.05700
O305        O  0.14357619  0.10295502  0.64750013    -0.79100
O306        O  0.13059633  0.02441012  0.64953094    -0.66600
Ni307      Ni  0.99364292  0.05179809  0.03975723     1.34900
C308        C  0.11234625  0.99570049  0.63034277     0.84500
O309        O  0.07444831  0.09927673  0.02886123    -0.79600
O310        O  0.02480980  0.06592894  0.99419810    -0.89900
C311        C  0.13532533  0.13031230  0.62227283     0.84000
O312        O  0.47826807  0.10611094  0.55293016    -0.68100
O313        O  0.08576806  0.04273013  0.72217052    -0.87400
C314        C  0.99536247  0.13486571  0.57323317     0.84900
C315        C  0.05545549  0.08539135  0.99455282     1.06400
H316        H  0.04961546  0.10013329  0.66446931     0.38200
O317        O  0.06479272  0.07960220  0.64883848    -1.10000
O318        O  0.07558428  0.99591012  0.62611044    -0.66700
Ni319      Ni  0.03311791  0.03455756  0.63389656     1.26300
O320        O  0.02802878  0.13092008  0.59322534    -0.66900
O321        O  0.02820165  0.02379049  0.69255616    -0.79200
C322        C  0.46730653  0.50151810  0.59515521     0.84300
O323        O  0.99842738  0.49221125  0.61582569    -0.66400
Ni324      Ni  0.11226439  0.07205004  0.68245313     1.27400
Ni325      Ni  0.06971745  0.09133879  0.58944810     1.26100
H326        H  0.05506457  0.02675956  0.56029068     0.38800
O327        O  0.00668108  0.15539496  0.87107113    -0.81200
O328        O  0.13288108  0.01108751  0.88701929    -0.65800
O329        O  0.06295197  0.09511166  0.85305272    -1.12400
C330        C  0.47331857  0.99074824  0.84000601     1.05700
O331        O  0.10495250  0.48769277  0.82694725    -0.79100
O332        O  0.04293877  0.98736979  0.77992286    -0.66600
Ni333      Ni  0.06129459  0.14569615  0.88476853     1.34900
C334        C  0.04097553  0.02137682  0.76713823     0.84500
O335        O  0.14083045  0.08643662  0.86606237    -0.79600
O336        O  0.11616362  0.14240371  0.89889481    -0.89900
C337        C  0.12919415  0.48258557  0.85746120     0.84000
O338        O  0.04931541  0.12189311  0.93533609    -0.68100
O339        O  0.00153299  0.46657984  0.84706168    -0.87400
C340        C  0.06764001  0.09391985  0.95246738     0.84900
C341        C  0.14152730  0.12350036  0.87528809     1.06400
H342        H  0.04645547  0.02100258  0.90292650     0.38200
O343        O  0.05262451  0.02490484  0.87298638    -1.10000
O344        O  0.03181129  0.05168300  0.79148567    -0.66700
Ni345      Ni  0.01865779  0.06299169  0.85082788     1.26300
O346        O  0.09397615  0.07197040  0.93366880    -0.66900
O347        O  0.47617813  0.02823498  0.84282426    -0.79200
C348        C  0.48345060  0.13818991  0.84277515     0.84300
O349        O  0.48602199  0.10207044  0.82977906    -0.66400
Ni350      Ni  0.05449168  0.47548831  0.83867144     1.27400
Ni351      Ni  0.09831371  0.05493768  0.87177650     1.26100
H352        H  0.06998269  0.10024740  0.82377361     0.38800
C353        C  0.14144398  0.41590142  0.54207070     0.02900
C354        C  0.12512544  0.45023048  0.56418319    -0.13300
C355        C  0.13410409  0.46102080  0.60892966     0.00400
C356        C  0.16248640  0.43840990  0.63143387    -0.11800
C357        C  0.17859263  0.40299961  0.61020310     0.02900
C358        C  0.16659139  0.39171751  0.56629908    -0.11200
H359        H  0.10555582  0.46938605  0.54664094     0.08500
H360        H  0.17139505  0.44783531  0.66514474     0.06000
H361        H  0.17855838  0.36446913  0.55037735     0.05800
C362        C  0.15193072  0.37995280  0.81095828     0.02900
C363        C  0.13121857  0.41389327  0.82635381    -0.13300
C364        C  0.14807870  0.44306764  0.85629965     0.00400
C365        C  0.18428032  0.43514446  0.87612250    -0.11800
C366        C  0.20367312  0.39911875  0.86350300     0.02900
C367        C  0.18799260  0.37240454  0.83040214    -0.11200
H368        H  0.10247532  0.41880381  0.81222998     0.08500
H369        H  0.19808633  0.45728288  0.89854069     0.06000
H370        H  0.20483299  0.34645157  0.81840165     0.05800
C371        C  0.20595304  0.13696365  0.53549181     0.02900
C372        C  0.22337093  0.17250808  0.54791502    -0.13300
C373        C  0.21219510  0.19778710  0.58524104     0.00400
C374        C  0.18346426  0.18484573  0.61213514    -0.11800
C375        C  0.16672528  0.14762713  0.60011107     0.02900
C376        C  0.17767629  0.12506034  0.56168846    -0.11200
H377        H  0.24644842  0.18016750  0.52786166     0.08500
H378        H  0.17418954  0.20312992  0.64107977     0.06000
H379        H  0.16330115  0.09785367  0.55169763     0.05800
C380        C  0.20742172  0.14743823  0.78740679     0.02900
C381        C  0.22728229  0.17867620  0.80957205    -0.13300
C382        C  0.21749081  0.19485784  0.85202919     0.00400
C383        C  0.18805850  0.17842621  0.87384120    -0.11800
C384        C  0.17057618  0.14446310  0.85378974     0.02900
C385        C  0.17942716  0.13018054  0.81024669    -0.11200
H386        H  0.25049617  0.19115811  0.79344785     0.08500
H387        H  0.18007765  0.19077741  0.90644323     0.06000
H388        H  0.16364449  0.10593808  0.79384406     0.05800
O389        O  0.25394637  0.24313594  0.56089767    -0.81200
O390        O  0.36505210  0.35997018  0.57056239    -0.65800
O391        O  0.30914476  0.27741131  0.60807301    -1.12400
C392        C  0.21318915  0.38099614  0.62794546     1.05700
O393        O  0.35169922  0.40123464  0.62949811    -0.79100
O394        O  0.30661087  0.37193784  0.69025436    -0.66600
Ni395      Ni  0.30721148  0.23046985  0.56976069     1.34900
C396        C  0.29477265  0.34054702  0.70385962     0.84500
O397        O  0.38227555  0.28114949  0.57464034    -0.79600
O398        O  0.36152842  0.21971506  0.07826017    -0.89900
C399        C  0.36904638  0.39285952  0.59331003     0.84000
O400        O  0.31547902  0.24678642  0.01213729    -0.68100
O401        O  0.24088957  0.40127355  0.64556530    -0.87400
C402        C  0.31337035  0.28122355  0.99975150     0.84900
C403        C  0.38842882  0.24340689  0.57417970     1.06400
H404        H  0.28141770  0.35810726  0.57290238     0.38200
O405        O  0.29251089  0.34991776  0.60039327    -1.10000
O406        O  0.27362857  0.31618726  0.67999635    -0.66700
Ni407      Ni  0.26150428  0.30864367  0.61599820     1.26300
O408        O  0.31788540  0.31131563  0.02703749    -0.66900
O409        O  0.21599331  0.34337369  0.61920355    -0.79200
C410        C  0.23210873  0.23648338  0.59132322     0.84300
O411        O  0.23095584  0.26241864  0.62455526    -0.66400
Ni412      Ni  0.29633333  0.39776257  0.63764568     1.27400
Ni413      Ni  0.33789532  0.31716717  0.58783541     1.26100
H414        H  0.31993051  0.27092089  0.63639451     0.38800
O415        O  0.35461018  0.24885447  0.78735766    -0.81200
O416        O  0.26768725  0.39008070  0.84881036    -0.65800
O417        O  0.34465418  0.30869359  0.84748627    -1.12400
C418        C  0.23852369  0.22972348  0.87011615     1.05700
O419        O  0.24914131  0.36860164  0.90965462    -0.79100
O420        O  0.26681648  0.30217256  0.94848984    -0.66600
Ni421      Ni  0.37589852  0.29939572  0.79803329     1.34900
C422        C  0.30027747  0.28638261  0.95349906     0.84500
O423        O  0.34327174  0.38766774  0.83306018    -0.79600
O424        O  0.39546454  0.35154927  0.80783990    -0.89900
C425        C  0.24289116  0.39008968  0.87804718     0.84000
O426        O  0.34367558  0.31575241  0.75018101    -0.68100
O427        O  0.21977199  0.26086709  0.88562335    -0.87400
C428        C  0.31008609  0.33136480  0.74819252     0.84900
C429        C  0.37736261  0.38439718  0.81824994     1.06400
H430        H  0.25794481  0.30193369  0.82793643     0.38200
O431        O  0.27257979  0.30811314  0.85517421    -1.10000
O432        O  0.32112873  0.27350037  0.92102506    -0.66700
Ni433      Ni  0.31084302  0.26724353  0.85700206     1.26300
O434        O  0.29169344  0.34266411  0.78272899    -0.66900
O435        O  0.27469694  0.22794633  0.86372654    -0.79200
C436        C  0.36542041  0.22353815  0.81345603     0.84300
O437        O  0.35151065  0.22685013  0.85170922    -0.66400
Ni438      Ni  0.23496281  0.31502084  0.89873421     1.27400
Ni439      Ni  0.30687760  0.34964548  0.84553096     1.26100
H440        H  0.36119437  0.31398906  0.87348845     0.38800
C441        C  0.37601929  0.48883847  0.71465346    -0.03600
C442        C  0.33860498  0.47929402  0.69859729    -0.09400
C443        C  0.31992787  0.99972761  0.66588402    -0.17100
C444        C  0.33733260  0.03121028  0.64944968     0.25100
C445        C  0.37569427  0.03894209  0.66187021    -0.18700
C446        C  0.39526702  0.51722855  0.69348583    -0.07600
C447        C  0.31181790  0.06111321  0.63272415    -0.14100
C448        C  0.28396527  0.08317525  0.63735259    -0.13800
C449        C  0.25339328  0.10094905  0.66378275     0.25000
C450        C  0.25150925  0.14164890  0.67477269    -0.19200
C451        C  0.23292475  0.15721789  0.71281068    -0.07700
C452        C  0.21771128  0.13207633  0.74156716    -0.03700
C453        C  0.21632713  0.09158800  0.72766153    -0.09100
C454        C  0.23362394  0.07631825  0.68876050    -0.16700
H455        H  0.32192897  0.45832284  0.71335569     0.11400
H456        H  0.29006861  0.99374379  0.65706894     0.10700
H457        H  0.38954687  0.06342347  0.64960645     0.10700
H458        H  0.42469175  0.52432546  0.70275483     0.11200
H459        H  0.26678563  0.16106651  0.65592814     0.11300
H460        H  0.23278165  0.18878329  0.72108610     0.11200
H461        H  0.20490647  0.07106232  0.74838133     0.11400
H462        H  0.23514994  0.04464258  0.68083637     0.10200
C463        C  0.38525371  0.46733406  0.46335156    -0.03600
C464        C  0.38776536  0.00682580  0.45364617    -0.09400
C465        C  0.36323521  0.02224214  0.42163854    -0.17100
C466        C  0.33514489  0.99893454  0.39959419     0.25100
C467        C  0.33541917  0.45868781  0.40501088    -0.18700
C468        C  0.36114500  0.44261504  0.43571167    -0.07600
C469        C  0.29992381  0.01863407  0.38625047    -0.14100
C470        C  0.27165755  0.03909965  0.39460376    -0.13800
C471        C  0.24693575  0.06294258  0.42378927     0.25000
C472        C  0.24390780  0.10380591  0.42199777    -0.19200
C473        C  0.22928907  0.12798092  0.45764330    -0.07700
C474        C  0.21810517  0.11152930  0.49575963    -0.03700
C475        C  0.22022654  0.07032057  0.49650456    -0.09100
C476        C  0.23432482  0.04629295  0.46074115    -0.16700
H477        H  0.40535322  0.02739257  0.47378770     0.11400
H478        H  0.36280115  0.05368514  0.41851004     0.10700
H479        H  0.31313526  0.44069163  0.38910312     0.10700
H480        H  0.35941269  0.41169561  0.44051490     0.11200
H481        H  0.25468111  0.11710244  0.39416006     0.11300
H482        H  0.22787910  0.15956651  0.45591702     0.11200
H483        H  0.21295464  0.05662760  0.52563878     0.11400
H484        H  0.23789070  0.01481830  0.46323545     0.10200
C485        C  0.13700277  0.35423856  0.77253675    -0.03600
C486        C  0.14213078  0.31305493  0.77126721    -0.09400
C487        C  0.12588615  0.28891560  0.73642178    -0.17100
C488        C  0.10438237  0.30556760  0.70240431     0.25100
C489        C  0.10072585  0.34656064  0.70220086    -0.18700
C490        C  0.11715128  0.37078842  0.73688800    -0.07600
C491        C  0.07960787  0.28094059  0.67402065    -0.14100
C492        C  0.05347921  0.26007423  0.66186676    -0.13800
C493        C  0.01995032  0.23740466  0.66432159     0.25000
C494        C  0.02437255  0.19682269  0.66738722    -0.19200
C495        C  0.99565189  0.17685572  0.68582673    -0.07700
C496        C  0.46385430  0.19801706  0.70474368    -0.03700
C497        C  0.45736237  0.23774066  0.69639600    -0.09100
C498        C  0.48531328  0.25725413  0.67612799    -0.16700
H499        H  0.15711744  0.29944218  0.79819856     0.11400
H500        H  0.12820461  0.25719714  0.73736356     0.10700
H501        H  0.08365594  0.35977678  0.67641870     0.10700
H502        H  0.11358927  0.40245829  0.73627849     0.11200
H503        H  0.05138476  0.18134331  0.65931573     0.11300
H504        H  0.00068042  0.14595345  0.69048197     0.11200
H505        H  0.43336689  0.25520143  0.71044782     0.11400
H506        H  0.48182693  0.28884389  0.67456976     0.10200
C507        C  0.50558321  0.25049522  0.48821314    -0.03600
C508        C  0.50141961  0.29149145  0.48609696    -0.09400
C509        C  0.51727093  0.30929812  0.45206516    -0.17100
C510        C  0.03873245  0.28686790  0.42011407     0.25100
C511        C  0.04264974  0.24606434  0.92122769    -0.18700
C512        C  0.52598423  0.22797847  0.95497789    -0.07600
C513        C  0.06255299  0.30782564  0.39352908    -0.14100
C514        C  0.08413493  0.33403950  0.39065319    -0.13800
C515        C  0.10418802  0.36604781  0.41375506     0.25000
C516        C  0.14227697  0.35928542  0.42854536    -0.19200
C517        C  0.15598938  0.37893698  0.46808745    -0.07700
C518        C  0.13106654  0.40409507  0.49448252    -0.03700
C519        C  0.09450810  0.41442036  0.47615317    -0.09100
C520        C  0.08155318  0.39603116  0.43570319    -0.16700
H521        H  0.48658053  0.31014137  0.51129147     0.11400
H522        H  0.51456814  0.34110260  0.45213874     0.10700
H523        H  0.06000732  0.22846376  0.89738375     0.10700
H524        H  0.02928761  0.19634151  0.95513562     0.11200
H525        H  0.15996607  0.33599126  0.91195033     0.11300
H526        H  0.18519421  0.37199397  0.47936328     0.11200
H527        H  0.07416496  0.43365634  0.49455370     0.11400
H528        H  0.05181443  0.40127545  0.42488909     0.10200
C529        C  0.48591772  0.73169431  0.02297880     0.02900
C530        C  0.44975616  0.74661464  0.03687471    -0.13300
C531        C  0.42802036  0.72665707  0.56486579     0.00400
C532        C  0.44262627  0.68989676  0.57838357    -0.11800
C533        C  0.47996329  0.67532785  0.56645556     0.02900
C534        C  0.50145254  0.69716015  0.03967839    -0.11200
H535        H  0.43699359  0.77258001  0.02321984     0.08500
H536        H  0.42518820  0.67277166  0.59761310     0.06000
H537        H  0.52958960  0.68557021  0.02957353     0.05800
C538        C  0.44577645  0.68365758  0.24330978     0.02900
C539        C  0.40863451  0.69621451  0.25532135    -0.13300
C540        C  0.39733781  0.69608584  0.29945657     0.00400
C541        C  0.42138867  0.67714585  0.32994057    -0.11800
C542        C  0.45737697  0.66148182  0.31639068     0.02500
C543        C  0.46948415  0.66543238  0.27399785    -0.11200
H544        H  0.39025113  0.71046381  0.23141375     0.08500
H545        H  0.41309572  0.67603262  0.36373730     0.06000
H546        H  0.49871966  0.65577798  0.26597290     0.05800
C547        C  0.40130626  0.95516022  0.00658378     0.02900
C548        C  0.43212910  0.97465397  0.02861530    -0.13300
C549        C  0.44053274  0.97205137  0.07381758     0.00400
C550        C  0.42025750  0.94549412  0.09665692    -0.11800
C551        C  0.39133676  0.92272530  0.07367132     0.02900
C552        C  0.38172630  0.92866728  0.02939120    -0.11200
H553        H  0.44863572  0.99410494  0.01117340     0.08500
H554        H  0.42641621  0.94302317  0.13149251     0.06000
H555        H  0.35716384  0.91384615  0.01364110     0.05800
C556        C  0.39254546  0.97193487  0.25567026     0.02900
C557        C  0.37973116  0.93626326  0.26839343    -0.13300
C558        C  0.39385411  0.92085551  0.30722603     0.00400
C559        C  0.42333331  0.93939953  0.33285045    -0.11800
C560        C  0.43710740  0.97476736  0.32061578     0.02900
C561        C  0.42072963  0.99143781  0.28306941    -0.11200
H562        H  0.35900361  0.91941831  0.24795419     0.08500
H563        H  0.43574337  0.92622345  0.36153390     0.06000
H564        H  0.43136791  0.01898582  0.27450756     0.05800
O565        O  0.46233250  0.53695914  0.08515178    -0.81200
O566        O  0.10149322  0.63523529  0.10586398    -0.65800
O567        O  0.03897882  0.54728431  0.07556846    -1.12400
C568        C  0.05263852  0.52820097  0.22419921     1.05700
O569        O  0.14343808  0.60302758  0.14746216    -0.79100
O570        O  0.13046328  0.52441259  0.14944304    -0.66600
Ni571      Ni  0.99361625  0.55176517  0.53988504     1.34900
C572        C  0.11215961  0.49569455  0.13034437     0.84500
O573        O  0.07464032  0.59894734  0.52879570    -0.79600
O574        O  0.02462923  0.56608807  0.49428189    -0.89900
C575        C  0.13515446  0.63050159  0.12239093     0.84000
O576        O  0.47833223  0.60621362  0.05248967    -0.68100
O577        O  0.08573188  0.54272575  0.22217283    -0.87400
C578        C  0.99525576  0.63496426  0.07305318     0.84900
C579        C  0.05542200  0.58530715  0.49455262     1.06400
H580        H  0.04957102  0.60023081  0.16458340     0.38200
O581        O  0.06469982  0.57972484  0.14890555    -1.10000
O582        O  0.07539302  0.49597300  0.12616170    -0.66700
Ni583      Ni  0.03299578  0.53471935  0.13394973     1.26300
O584        O  0.02776835  0.63101127  0.09338196    -0.66900
O585        O  0.02808558  0.52396261  0.19261859    -0.79200
C586        C  0.46715207  0.00172244  0.09514755     0.84300
O587        O  0.99823744  0.99243735  0.11590053    -0.66400
Ni588      Ni  0.11219565  0.57207092  0.18243119     1.27400
Ni589      Ni  0.06956979  0.59155137  0.08952309     1.26100
H590        H  0.05506323  0.52694322  0.06039273     0.38800
O591        O  0.00698915  0.65564351  0.37090924    -0.81200
O592        O  0.13275187  0.51087765  0.38691776    -0.65800
O593        O  0.06302458  0.59510986  0.35311990    -1.12400
C594        C  0.47316080  0.49091462  0.34013832     1.05700
O595        O  0.10470931  0.98770340  0.32681045    -0.79100
O596        O  0.04264712  0.48745030  0.27993415    -0.66600
Ni597      Ni  0.06150782  0.64566161  0.38488889     1.34900
C598        C  0.04088381  0.52147229  0.26718438     0.84500
O599        O  0.14089972  0.58624356  0.36613558    -0.79600
O600        O  0.11630327  0.64207131  0.39926819    -0.89900
C601        C  0.12902881  0.98249556  0.35720875     0.84000
O602        O  0.04925638  0.62176311  0.43529681    -0.68100
O603        O  0.00133343  0.96669775  0.34719246    -0.87400
C604        C  0.06758114  0.59379718  0.45245676     0.84900
C605        C  0.14160049  0.62329507  0.37547496     1.06400
H606        H  0.04635303  0.52101164  0.40295099     0.38200
O607        O  0.05253094  0.52492026  0.37301528    -1.10000
O608        O  0.03182947  0.55179512  0.29155941    -0.66700
Ni609      Ni  0.01864947  0.56308976  0.35089590     1.26300
O610        O  0.09395839  0.57186415  0.43370194    -0.66900
O611        O  0.47610559  0.52839327  0.34287398    -0.79200
C612        C  0.48361575  0.63841670  0.34278932     0.84300
O613        O  0.48605844  0.60226037  0.32990524    -0.66400
Ni614      Ni  0.05427835  0.97553236  0.33866197     1.27400
Ni615      Ni  0.09829095  0.55483702  0.37180485     1.26100
H616        H  0.07007655  0.60025100  0.32385061     0.38800
C617        C  0.14128792  0.91580455  0.04211119     0.02900
C618        C  0.12488647  0.95009700  0.06423441    -0.13300
C619        C  0.13385628  0.96092749  0.10897741     0.00400
C620        C  0.16223300  0.93832176  0.13150154    -0.11800
C621        C  0.17840470  0.90294125  0.11026685     0.02900
C622        C  0.16648073  0.89166887  0.06633347    -0.11200
H623        H  0.10528861  0.96921965  0.04668483     0.08500
H624        H  0.17112161  0.94775241  0.16521743     0.06000
H625        H  0.17853468  0.86447012  0.05038505     0.05800
C626        C  0.15200132  0.87987154  0.31043809     0.02900
C627        C  0.13133298  0.91395208  0.32547320    -0.13300
C628        C  0.14800825  0.94302410  0.35572382     0.00400
C629        C  0.18406334  0.93503859  0.37583207    -0.11800
C630        C  0.20344192  0.89897733  0.36339800     0.02900
C631        C  0.18786773  0.87221542  0.33027593    -0.11200
H632        H  0.10274069  0.91894961  0.31097973     0.08500
H633        H  0.19777275  0.95714752  0.39838042     0.06000
H634        H  0.20466809  0.84615693  0.31851877     0.05800
C635        C  0.20588573  0.63707407  0.03575198     0.02900
C636        C  0.22338823  0.67255954  0.04822764    -0.13300
C637        C  0.21215099  0.69789142  0.08547881     0.00400
C638        C  0.18332126  0.68503291  0.11229604    -0.11800
C639        C  0.16654737  0.64783491  0.10025122     0.02900
C640        C  0.17752877  0.62523825  0.06186827    -0.11200
H641        H  0.24655002  0.68014768  0.02825014     0.08500
H642        H  0.17401223  0.70335444  0.14119915     0.06000
H643        H  0.16312453  0.59805398  0.05184763     0.05800
C644        C  0.20726755  0.64734729  0.28746155     0.02900
C645        C  0.22728417  0.67845995  0.30966341    -0.13300
C646        C  0.21750122  0.69471319  0.35209406     0.00400
C647        C  0.18800832  0.67834970  0.37389827    -0.11800
C648        C  0.17050581  0.64437357  0.35387991     0.02900
C649        C  0.17925166  0.63013813  0.31030144    -0.11200
H650        H  0.25055857  0.69084031  0.29354224     0.08500
H651        H  0.18002883  0.69073201  0.40648821     0.06000
H652        H  0.16339503  0.60595138  0.29389090     0.05800
O653        O  0.25388189  0.74322609  0.06108548    -0.81200
O654        O  0.36487873  0.86011400  0.07054081    -0.65800
O655        O  0.30908824  0.77752247  0.10821600    -1.12400
C656        C  0.21302929  0.88100319  0.12802278     1.05700
O657        O  0.35150289  0.90143302  0.12943623    -0.79100
O658        O  0.30648429  0.87214292  0.19029252    -0.66600
Ni659      Ni  0.30714868  0.73056050  0.06993170     1.34900
C660        C  0.29468210  0.84075418  0.20394482     0.84500
O661        O  0.38216083  0.78126749  0.07467801    -0.79600
O662        O  0.36159631  0.71960549  0.57811015    -0.89900
C663        C  0.36885145  0.89303312  0.09324839     0.84000
O664        O  0.31553058  0.74677018  0.51200308    -0.68100
O665        O  0.24071155  0.90133460  0.14559033    -0.87400
C666        C  0.31344593  0.78122340  0.49966231     0.84900
C667        C  0.38833273  0.74352476  0.07423678     1.06400
H668        H  0.28125438  0.85814877  0.07295848     0.38200
O669        O  0.29237474  0.85000239  0.10045624    -1.10000
O670        O  0.27355603  0.81635244  0.18012163    -0.66700
Ni671      Ni  0.26142615  0.80871888  0.11613667     1.26300
O672        O  0.31803883  0.81128746  0.52696590    -0.66900
O673        O  0.21587879  0.84338205  0.11932097    -0.79200
C674        C  0.23206671  0.73657310  0.09153420     0.84300
O675        O  0.23093679  0.76249458  0.12477341    -0.66400
Ni676      Ni  0.29615053  0.89789070  0.13763691     1.27400
Ni677      Ni  0.33777701  0.81728213  0.08789217     1.26100
H678        H  0.31989801  0.77106312  0.13653829     0.38800
O679        O  0.35478863  0.74907218  0.28728271    -0.81200
O680        O  0.26744734  0.89008826  0.34885737    -0.65800
O681        O  0.34452716  0.80884918  0.34752266    -1.12400
C682        C  0.23853994  0.72962572  0.37010618     1.05700
O683        O  0.24888458  0.86856366  0.40966807    -0.79100
O684        O  0.26682046  0.80221100  0.44849968    -0.66600
Ni685      Ni  0.37588109  0.79970523  0.29814727     1.34900
C686        C  0.30029003  0.78642375  0.45344573     0.84500
O687        O  0.34298090  0.88784026  0.33320817    -0.79600
O688        O  0.39532004  0.85188717  0.30815524    -0.89900
C689        C  0.24262830  0.89003194  0.37804670     0.84000
O690        O  0.34366225  0.81613343  0.25030183    -0.68100
O691        O  0.21978659  0.76072583  0.38573358    -0.87400
C692        C  0.31001222  0.83160872  0.24828111     0.84900
C693        C  0.37711728  0.88467328  0.31854633     1.06400
H694        H  0.25781157  0.80194577  0.32793497     0.38200
O695        O  0.27244752  0.80812724  0.35517149    -1.10000
O696        O  0.32108531  0.77352425  0.42093683    -0.66700
Ni697      Ni  0.31078362  0.76732574  0.35692748     1.26300
O698        O  0.29153128  0.84275080  0.28279251    -0.66900
O699        O  0.27469000  0.72793594  0.36355341    -0.79200
C700        C  0.36549851  0.72372393  0.31340597     0.84300
O701        O  0.35151811  0.72702334  0.35161867    -0.66400
Ni702      Ni  0.23485708  0.81493515  0.39878082     1.27400
Ni703      Ni  0.30667896  0.84972943  0.34559368     1.26100
H704        H  0.36102387  0.81415317  0.37355911     0.38800
C705        C  0.37544838  0.98921711  0.21517796    -0.03600
C706        C  0.33800874  0.97964704  0.19921531    -0.09400
C707        C  0.31929140  0.50000188  0.16646099    -0.17100
C708        C  0.33669542  0.53140666  0.14985987     0.25100
C709        C  0.37502414  0.53923832  0.16230019    -0.18700
C710        C  0.39462876  0.01762032  0.19396569    -0.07600
C711        C  0.31123288  0.56116579  0.13278586    -0.14100
C712        C  0.28341003  0.58328271  0.13719817    -0.13800
C713        C  0.25286955  0.60108529  0.16362444     0.25000
C714        C  0.25114199  0.64176255  0.17477661    -0.19200
C715        C  0.23263100  0.65727572  0.21287564    -0.07700
C716        C  0.21739692  0.63208433  0.24155634    -0.03700
C717        C  0.21585194  0.59163890  0.22750153    -0.09100
C718        C  0.23304589  0.57643555  0.18852126    -0.16700
H719        H  0.32135954  0.95869431  0.21404023     0.11400
H720        H  0.28943742  0.49397515  0.15766841     0.10700
H721        H  0.38884569  0.56369991  0.14995538     0.10700
H722        H  0.42404686  0.02477183  0.20318286     0.11200
H723        H  0.26648798  0.66118825  0.15601329     0.11300
H724        H  0.23259012  0.68882224  0.22127382     0.11200
H725        H  0.20439773  0.57108095  0.24815726     0.11400
H726        H  0.23447108  0.54477333  0.18047745     0.10200
C727        C  0.38528027  0.96765952  0.96340365    -0.03600
C728        C  0.38764231  0.50726295  0.95405040    -0.09400
C729        C  0.36319829  0.52275010  0.92202269    -0.17100
C730        C  0.33531469  0.49939964  0.89963387     0.25100
C731        C  0.33576701  0.95907616  0.90470646    -0.18700
C732        C  0.36139707  0.94295234  0.93547438    -0.07600
C733        C  0.30001955  0.51901416  0.88639575    -0.14100
C734        C  0.27170329  0.53936020  0.89487210    -0.13800
C735        C  0.24693765  0.56313340  0.92407002     0.25000
C736        C  0.24387221  0.60399571  0.92230302    -0.19200
C737        C  0.22920454  0.62813523  0.95793607    -0.07700
C738        C  0.21800957  0.61164977  0.99601911    -0.03700
C739        C  0.22010770  0.57043671  0.99672624    -0.09100
C740        C  0.23428146  0.54643926  0.96097621    -0.16700
H741        H  0.40502934  0.52781741  0.97448527     0.11400
H742        H  0.36261698  0.55424098  0.91916504     0.10700
H743        H  0.31364122  0.94104080  0.88850582     0.10700
H744        H  0.35976064  0.91198589  0.94010465     0.11200
H745        H  0.25466442  0.61732300  0.89449698     0.11300
H746        H  0.22777848  0.65972550  0.95623721     0.11200
H747        H  0.21278062  0.55672548  0.02582876     0.11400
H748        H  0.23785917  0.51496200  0.96344374     0.10200
C749        C  0.13721139  0.85404663  0.27205404    -0.03600
C750        C  0.14180957  0.81285194  0.27128763    -0.09400
C751        C  0.12553095  0.78864110  0.23652745    -0.17100
C752        C  0.10455774  0.80524540  0.20209025     0.25100
C753        C  0.10148404  0.84621449  0.20138835    -0.18700
C754        C  0.11792589  0.87050561  0.23600186    -0.07600
C755        C  0.07966055  0.78075482  0.17372759    -0.14100
C756        C  0.05337012  0.76009713  0.16162805    -0.13800
C757        C  0.01975321  0.73761802  0.16425655     0.25000
C758        C  0.02403084  0.69699889  0.16707984    -0.19200
C759        C  0.99535125  0.67707320  0.18562823    -0.07700
C760        C  0.46374275  0.69829705  0.20485597    -0.03700
C761        C  0.45740643  0.73813217  0.19691395    -0.09100
C762        C  0.48530787  0.75761493  0.17653851    -0.16700
H763        H  0.15637085  0.79932883  0.29854676     0.11400
H764        H  0.12738758  0.75695209  0.23784699     0.10700
H765        H  0.08482340  0.85939610  0.17527284     0.10700
H766        H  0.11478538  0.90216905  0.23504414     0.11200
H767        H  0.05094646  0.68144563  0.15875954     0.11300
H768        H  0.00029282  0.64612854  0.19012929     0.11200
H769        H  0.43359250  0.75563331  0.21133560     0.11400
H770        H  0.48197561  0.78924665  0.17525127     0.10200
C771        C  0.50530086  0.75064029  0.98804423    -0.03600
C772        C  0.50115564  0.79163369  0.98590206    -0.09400
C773        C  0.51681857  0.80937793  0.95170415    -0.17100
C774        C  0.03811934  0.78688589  0.91964439     0.25100
C775        C  0.04335398  0.74605090  0.42171392    -0.18700
C776        C  0.52651052  0.72790001  0.45530075    -0.07600
C777        C  0.06209884  0.80776592  0.89316172    -0.14100
C778        C  0.08388617  0.83385620  0.89056775    -0.13800
C779        C  0.10391792  0.86577073  0.91391561     0.25000
C780        C  0.14206675  0.85912163  0.92858782    -0.19200
C781        C  0.15583122  0.87886340  0.96807241    -0.07700
C782        C  0.13089427  0.90395784  0.99453477    -0.03700
C783        C  0.09425378  0.91412530  0.97632978    -0.09100
C784        C  0.08124154  0.89565602  0.93595909    -0.16700
H785        H  0.48647785  0.81032068  0.01119817     0.11400
H786        H  0.51417113  0.84118355  0.95177738     0.10700
H787        H  0.06084926  0.72850014  0.39796687     0.10700
H788        H  0.02985916  0.69626403  0.45543832     0.11200
H789        H  0.16013991  0.83607911  0.41198515     0.11300
H790        H  0.18508682  0.87203803  0.97926787     0.11200
H791        H  0.07389386  0.93329045  0.99478899     0.11400
H792        H  0.05146170  0.90080548  0.92524759     0.10200
C793        C  0.48607663  0.73150792  0.52303371     0.02900
C794        C  0.44989850  0.74644383  0.53687570    -0.13300
C795        C  0.42790377  0.72678179  0.06484226     0.00400
C796        C  0.44251091  0.68998547  0.07825776    -0.11800
C797        C  0.47984677  0.67544009  0.06629965     0.02900
C798        C  0.50157496  0.69698386  0.53977731    -0.11200
H799        H  0.43714919  0.77239392  0.52317954     0.08500
H800        H  0.42507748  0.67281828  0.09744451     0.06000
H801        H  0.52971003  0.68536463  0.52970138     0.05800
C802        C  0.44578406  0.68351882  0.74326448     0.02900
C803        C  0.40868698  0.69626005  0.75533625    -0.13300
C804        C  0.39732629  0.69601986  0.79945339     0.00400
C805        C  0.42130882  0.67698676  0.82989985    -0.11800
C806        C  0.45725047  0.66124579  0.81633856     0.02500
C807        C  0.46938032  0.66514158  0.77393963    -0.11200
H808        H  0.39034252  0.71060061  0.73147108     0.08500
H809        H  0.41298834  0.67583166  0.86368070     0.06000
H810        H  0.49858147  0.65534741  0.76593979     0.05800
C811        C  0.40133140  0.95500808  0.50660820     0.02900
C812        C  0.43212662  0.97458617  0.52863014    -0.13300
C813        C  0.44064590  0.97190372  0.57381293     0.00400
C814        C  0.42043786  0.94531558  0.59666740    -0.11800
C815        C  0.39149557  0.92256520  0.57372959     0.02900
C816        C  0.38182896  0.92849843  0.52947147    -0.11200
H817        H  0.44858194  0.99408428  0.51119986     0.08500
H818        H  0.42666563  0.94280666  0.63148333     0.06000
H819        H  0.35726338  0.91363843  0.51379683     0.05800
C820        C  0.39298614  0.97159710  0.75524274     0.02900
C821        C  0.38015974  0.93590974  0.76794246    -0.13300
C822        C  0.39417240  0.92054590  0.80685712     0.00400
C823        C  0.42357212  0.93914997  0.83256663    -0.11800
C824        C  0.43732604  0.97454691  0.82038181     0.02900
C825        C  0.42102434  0.99118496  0.78277786    -0.11200
H826        H  0.35949139  0.91904044  0.74744142     0.08500
H827        H  0.43592483  0.92600941  0.86129973     0.06000
H828        H  0.43162687  0.01876578  0.77425968     0.05800
O829        O  0.46244233  0.53677637  0.58529740    -0.81200
O830        O  0.10168003  0.63499408  0.60569378    -0.65800
O831        O  0.03904680  0.54712641  0.57552687    -1.12400
C832        C  0.05271082  0.52812963  0.72416905     1.05700
O833        O  0.14357452  0.60295728  0.64750017    -0.79100
O834        O  0.13059343  0.52441296  0.64954024    -0.66600
Ni835      Ni  0.99364587  0.55179610  0.03975469     1.34900
C836        C  0.11234415  0.49570314  0.63035105     0.84500
O837        O  0.07445064  0.59927856  0.02886311    -0.79600
O838        O  0.02481313  0.56593074  0.99419791    -0.89900
C839        C  0.13532355  0.63031339  0.62227123     0.84000
O840        O  0.47826937  0.60610856  0.55292913    -0.68100
O841        O  0.08576285  0.54274081  0.72217702    -0.87400
C842        C  0.99536169  0.63486755  0.57323422     0.84900
C843        C  0.05545853  0.58539367  0.99455412     1.06400
H844        H  0.04961308  0.60013653  0.66446829     0.38200
O845        O  0.06479063  0.57960487  0.64883910    -1.10000
O846        O  0.07558224  0.49591302  0.62611495    -0.66700
Ni847      Ni  0.03311540  0.53456019  0.63389991     1.26300
O848        O  0.02802831  0.63092134  0.59322523    -0.66900
O849        O  0.02819948  0.52379388  0.69256071    -0.79200
C850        C  0.46730334  0.00152297  0.59516005     0.84300
O851        O  0.99843099  0.99220786  0.61582097    -0.66400
Ni852      Ni  0.11226118  0.57205599  0.68245635     1.27400
Ni853      Ni  0.06971545  0.59133870  0.58944763     1.26100
H854        H  0.05506070  0.52675934  0.56029314     0.38800
O855        O  0.00669819  0.65540410  0.87106633    -0.81200
O856        O  0.13288261  0.51108152  0.88702402    -0.65800
O857        O  0.06295857  0.59510989  0.85305651    -1.12400
C858        C  0.47332000  0.49074339  0.83999515     1.05700
O859        O  0.10495301  0.98769649  0.82694244    -0.79100
O860        O  0.04293871  0.48737370  0.77992849    -0.66600
Ni861      Ni  0.06130864  0.64569558  0.88477021     1.34900
C862        C  0.04097254  0.52138121  0.76714454     0.84500
O863        O  0.14083796  0.58642831  0.86606413    -0.79600
O864        O  0.11617562  0.64239345  0.89890265    -0.89900
C865        C  0.12919301  0.98259024  0.85745817     0.84000
O866        O  0.04932209  0.62189492  0.93533656    -0.68100
O867        O  0.00153497  0.96657624  0.84705468    -0.87400
C868        C  0.06764495  0.59392128  0.95246949     0.84900
C869        C  0.14153700  0.62349153  0.87529201     1.06400
H870        H  0.04645893  0.52100228  0.90293336     0.38200
O871        O  0.05262672  0.52490483  0.87299289    -1.10000
O872        O  0.03180690  0.55168615  0.79149316    -0.66700
Ni873      Ni  0.01866060  0.56299414  0.85083781     1.26300
O874        O  0.09398107  0.57197011  0.93367266    -0.66900
O875        O  0.47617835  0.52823004  0.84280993    -0.79200
C876        C  0.48344086  0.63818347  0.84276981     0.84300
O877        O  0.48601952  0.60206615  0.82976509    -0.66400
Ni878      Ni  0.05449319  0.97548762  0.83866586     1.27400
Ni879      Ni  0.09831800  0.55493378  0.87178085     1.26100
H880        H  0.06998860  0.60024319  0.82377654     0.38800
C881        C  0.14144183  0.91589892  0.54205998     0.02900
C882        C  0.12512479  0.95022849  0.56417308    -0.13300
C883        C  0.13410481  0.96101833  0.60891936     0.00400
C884        C  0.16248623  0.93840615  0.63142280    -0.11800
C885        C  0.17859180  0.90299598  0.61019153     0.02900
C886        C  0.16659008  0.89171445  0.56628722    -0.11200
H887        H  0.10555494  0.96938435  0.54663138     0.08500
H888        H  0.17139504  0.94783079  0.66513384     0.06000
H889        H  0.17855697  0.86446641  0.55036441     0.05800
C890        C  0.15191835  0.87995158  0.81097029     0.02900
C891        C  0.13120866  0.91389438  0.82636347    -0.13300
C892        C  0.14807234  0.94307039  0.85630408     0.00400
C893        C  0.18427415  0.93514669  0.87612590    -0.11800
C894        C  0.20366447  0.89911906  0.86350924     0.02900
C895        C  0.18798061  0.87240259  0.83041303    -0.11200
H896        H  0.10246555  0.91880608  0.81223973     0.08500
H897        H  0.19808285  0.95728657  0.89853963     0.06000
H898        H  0.20481928  0.84644797  0.81841383     0.05800
C899        C  0.20593960  0.63697228  0.53548008     0.02900
C900        C  0.22335965  0.67251512  0.54790488    -0.13300
C901        C  0.21219186  0.69778926  0.58523804     0.00400
C902        C  0.18346545  0.68484510  0.61213621    -0.11800
C903        C  0.16672243  0.64762905  0.60010852     0.02900
C904        C  0.17766601  0.62506725  0.56167978    -0.11200
H905        H  0.24643430  0.68017607  0.52784854     0.08500
H906        H  0.17419698  0.70312535  0.64108646     0.06000
H907        H  0.16328808  0.59786254  0.55168735     0.05800
C908        C  0.20742167  0.64743713  0.78740380     0.02900
C909        C  0.22727778  0.67867980  0.80956637    -0.13300
C910        C  0.21748894  0.69485860  0.85202543     0.00400
C911        C  0.18806261  0.67842126  0.87384125    -0.11800
C912        C  0.17058332  0.64445580  0.85379136     0.02900
C913        C  0.17943277  0.63017433  0.81024750    -0.11200
H914        H  0.25048762  0.69116633  0.79344002     0.08500
H915        H  0.18008380  0.69077045  0.90644475     0.06000
H916        H  0.16365273  0.60592905  0.79384712     0.05800
O917        O  0.25394971  0.74313431  0.56089962    -0.81200
O918        O  0.36505391  0.85997139  0.57056149    -0.65800
O919        O  0.30914758  0.77741154  0.60807426    -1.12400
C920        C  0.21318818  0.88099322  0.62793546     1.05700
O921        O  0.35169716  0.90123753  0.62949464    -0.79100
O922        O  0.30660860  0.87194109  0.69025109    -0.66600
Ni923      Ni  0.30721491  0.73046946  0.56976288     1.34900
C924        C  0.29477034  0.84055091  0.70385786     0.84500
O925        O  0.38227925  0.78115073  0.57464283    -0.79600
O926        O  0.36152414  0.71971388  0.07825865    -0.89900
C927        C  0.36904586  0.89286193  0.59330761     0.84000
O928        O  0.31547661  0.74678802  0.01213568    -0.68100
O929        O  0.24088720  0.90127140  0.64555755    -0.87400
C930        C  0.31336619  0.78122544  0.99975066     0.84900
C931        C  0.38843245  0.74340800  0.57418106     1.06400
H932        H  0.28141921  0.85810481  0.57289850     0.38200
O933        O  0.29251192  0.84991679  0.60039020    -1.10000
O934        O  0.27362746  0.81618979  0.67999486    -0.66700
Ni935      Ni  0.26150587  0.80864255  0.61599617     1.26300
O936        O  0.31787965  0.81131721  0.02703769    -0.66900
O937        O  0.21599341  0.84337072  0.61919550    -0.79200
C938        C  0.23211064  0.73648257  0.59132402     0.84300
O939        O  0.23095799  0.76241776  0.62455587    -0.66400
Ni940      Ni  0.29633128  0.89776304  0.63764034     1.27400
Ni941      Ni  0.33789786  0.81716767  0.58783561     1.26100
H942        H  0.31993267  0.77092207  0.63639637     0.38800
O943        O  0.35461035  0.74886146  0.78735623    -0.81200
O944        O  0.26767784  0.89008348  0.84881002    -0.65800
O945        O  0.34464859  0.80869977  0.84748638    -1.12400
C946        C  0.23852047  0.72972521  0.87011256     1.05700
O947        O  0.24913694  0.86860236  0.90965530    -0.79100
O948        O  0.26681131  0.80217265  0.94848865    -0.66600
Ni949      Ni  0.37589539  0.79940422  0.79803567     1.34900
C950        C  0.30027312  0.78638473  0.95349802     0.84500
O951        O  0.34326333  0.88767481  0.83306209    -0.79600
O952        O  0.39545894  0.85155859  0.80784612    -0.89900
C953        C  0.24288384  0.89009110  0.87804909     0.84000
O954        O  0.34367328  0.81576074  0.75018243    -0.68100
O955        O  0.21976767  0.76086827  0.88561955    -0.87400
C956        C  0.31008280  0.83137069  0.74819206     0.84900
C957        C  0.37735581  0.88440577  0.81825616     1.06400
H958        H  0.25793967  0.80193661  0.82793458     0.38200
O959        O  0.27257448  0.80811619  0.85517257    -1.10000
O960        O  0.32112498  0.77350447  0.92102382    -0.66700
Ni961      Ni  0.31083901  0.76724807  0.85700060     1.26300
O962        O  0.29168812  0.84266861  0.78272757    -0.66900
O963        O  0.27469393  0.72794924  0.86372394    -0.79200
C964        C  0.36541795  0.72354397  0.81345452     0.84300
O965        O  0.35150767  0.72685611  0.85170744    -0.66400
Ni966      Ni  0.23495805  0.81502198  0.89873298     1.27400
Ni967      Ni  0.30687041  0.84965027  0.84553040     1.26100
H968        H  0.36118768  0.81399584  0.87348930     0.38800
C969        C  0.37602003  0.98884663  0.71466182    -0.03600
C970        C  0.33860589  0.97930199  0.69860496    -0.09400
C971        C  0.31992742  0.49971848  0.66587475    -0.17100
C972        C  0.33733307  0.53119981  0.64943833     0.25100
C973        C  0.37569526  0.53893019  0.66185749    -0.18700
C974        C  0.39526701  0.01723861  0.69349628    -0.07600
C975        C  0.31181927  0.56110538  0.63271644    -0.14100
C976        C  0.28396953  0.58317078  0.63735010    -0.13800
C977        C  0.25339970  0.60094528  0.66378350     0.25000
C978        C  0.25151330  0.64164549  0.67477121    -0.19200
C979        C  0.23292530  0.65721524  0.71280677    -0.07700
C980        C  0.21771215  0.63207426  0.74156431    -0.03700
C981        C  0.21633118  0.59158521  0.72766077    -0.09100
C982        C  0.23363090  0.57631470  0.68876188    -0.16700
H983        H  0.32192982  0.95832988  0.71336161     0.11400
H984        H  0.29006783  0.49373556  0.65706052     0.10700
H985        H  0.38954872  0.56341018  0.64959189     0.10700
H986        H  0.42469165  0.02433577  0.70276540     0.11200
H987        H  0.26678896  0.66106314  0.65592599     0.11300
H988        H  0.23277921  0.68878106  0.72107947     0.11200
H989        H  0.20491090  0.57105948  0.74838070     0.11400
H990        H  0.23515850  0.54463885  0.68083940     0.10200
C991        C  0.38525506  0.96734019  0.46335078    -0.03600
C992        C  0.38776747  0.50681885  0.45364568    -0.09400
C993        C  0.36323663  0.52223743  0.42164037    -0.17100
C994        C  0.33514228  0.49893308  0.39959938     0.25100
C995        C  0.33542637  0.95868886  0.40500420    -0.18700
C996        C  0.36115141  0.94261865  0.43570753    -0.07600
C997        C  0.29992376  0.51863701  0.38625521    -0.14100
C998        C  0.27165901  0.53910619  0.39460464    -0.13800
C999        C  0.24693348  0.56295083  0.42378420     0.25000
C1000       C  0.24390789  0.60381422  0.42199230    -0.19200
C1001       C  0.22928283  0.62798961  0.45763398    -0.07700
C1002       C  0.21809097  0.61153827  0.49574719    -0.03700
C1003       C  0.22020935  0.57032941  0.49649139    -0.09100
C1004       C  0.23431352  0.54630157  0.46073173    -0.16700
H1005       H  0.40535889  0.52738391  0.47378478     0.11400
H1006       H  0.36280603  0.55368015  0.41851089     0.10700
H1007       H  0.31314563  0.94069014  0.38909377     0.10700
H1008       H  0.35942212  0.91169872  0.44050988     0.11200
H1009       H  0.25468776  0.61711043  0.39415793     0.11300
H1010       H  0.22787558  0.65957519  0.45590792     0.11200
H1011       H  0.21293221  0.55663604  0.52562330     0.11400
H1012       H  0.23787721  0.51482685  0.46322652     0.10200
C1013       C  0.13698998  0.85423812  0.77254839    -0.03600
C1014       C  0.14211493  0.81305434  0.77127945    -0.09400
C1015       C  0.12587448  0.78891615  0.73643021    -0.17100
C1016       C  0.10437754  0.80556934  0.70240844     0.25100
C1017       C  0.10072323  0.84656259  0.70220546    -0.18700
C1018       C  0.11714448  0.87078924  0.73689656    -0.07600
C1019       C  0.07960668  0.78094310  0.67401881    -0.14100
C1020       C  0.05348012  0.76007508  0.66186118    -0.13800
C1021       C  0.01995276  0.73740268  0.66431444     0.25000
C1022       C  0.02437862  0.69682195  0.66738742    -0.19200
C1023       C  0.99565952  0.67685522  0.68583007    -0.07700
C1024       C  0.46384831  0.69801837  0.70474405    -0.03700
C1025       C  0.45736080  0.73774470  0.69640556    -0.09100
C1026       C  0.48531349  0.75725875  0.67614144    -0.16700
H1027       H  0.15709696  0.79944084  0.79821324     0.11400
H1028       H  0.12819100  0.75719761  0.73737168     0.10700
H1029       H  0.08365848  0.85977977  0.67642004     0.10700
H1030       H  0.11358486  0.90245929  0.73628696     0.11200
H1031       H  0.05139241  0.68134403  0.65931973     0.11300
H1032       H  0.00069071  0.64595449  0.69049113     0.11200
H1033       H  0.43336740  0.75520599  0.71046156     0.11400
H1034       H  0.48183047  0.78884954  0.67458983     0.10200
C1035       C  0.50558804  0.75049671  0.48821593    -0.03600
C1036       C  0.50142495  0.79149326  0.48610154    -0.09400
C1037       C  0.51727600  0.80930101  0.45207038    -0.17100
C1038       C  0.03872752  0.78686438  0.42010975     0.25100
C1039       C  0.04265615  0.74606589  0.92123249    -0.18700
C1040       C  0.52597881  0.72797780  0.95497471    -0.07600
C1041       C  0.06254804  0.80782138  0.39352376    -0.14100
C1042       C  0.08412916  0.83403569  0.39064595    -0.13800
C1043       C  0.10418098  0.86604610  0.41374562     0.25000
C1044       C  0.14227184  0.85928765  0.42853170    -0.19200
C1045       C  0.15598507  0.87893881  0.46807384    -0.07700
C1046       C  0.13106181  0.90409311  0.49447233    -0.03700
C1047       C  0.09450094  0.91441524  0.47614704    -0.09100
C1048       C  0.08154485  0.89602638  0.43569730    -0.16700
H1049       H  0.48658640  0.81014268  0.51129686     0.11400
H1050       H  0.51457336  0.84110562  0.45214522     0.10700
H1051       H  0.06001356  0.72846575  0.89738801     0.10700
H1052       H  0.02929290  0.69634209  0.95513796     0.11200
H1053       H  0.15997083  0.83598744  0.91196531     0.11300
H1054       H  0.18519112  0.87199824  0.47934741     0.11200
H1055       H  0.07415752  0.93364830  0.49455085     0.11400
H1056       H  0.05180479  0.90126782  0.42488641     0.10200
C1057       C  0.98591702  0.23169420  0.02297827     0.02900
C1058       C  0.94975581  0.24661487  0.03687491    -0.13300
C1059       C  0.92801997  0.22665704  0.56486448     0.00400
C1060       C  0.94262622  0.18989706  0.57838272    -0.11800
C1061       C  0.97996317  0.17532825  0.56645451     0.02900
C1062       C  0.00145190  0.19715999  0.03967774    -0.11200
H1063       H  0.93699315  0.27258021  0.02322006     0.08500
H1064       H  0.92518844  0.17277214  0.59761277     0.06000
H1065       H  0.02958871  0.18556975  0.02957233     0.05800
C1066       C  0.94577673  0.18365757  0.24330988     0.02900
C1067       C  0.90863478  0.19621439  0.25532147    -0.13300
C1068       C  0.89733842  0.19608648  0.29945689     0.00400
C1069       C  0.92138965  0.17714716  0.32994120    -0.11800
C1070       C  0.95737792  0.16148303  0.31639125     0.02500
C1071       C  0.96948476  0.16543309  0.27399822    -0.11200
H1072       H  0.89025114  0.21046315  0.23141368     0.08500
H1073       H  0.91309695  0.17603448  0.36373812     0.06000
H1074       H  0.99872028  0.15577876  0.26597326     0.05800
C1075       C  0.90130615  0.45516094  0.00658272     0.02900
C1076       C  0.93212928  0.47465434  0.02861413    -0.13300
C1077       C  0.94053329  0.47205119  0.07381630     0.00400
C1078       C  0.92025799  0.44549399  0.09665555    -0.11800
C1079       C  0.89133683  0.42272571  0.07367012     0.02900
C1080       C  0.88172610  0.42866805  0.02939016    -0.11200
H1081       H  0.94863577  0.49410550  0.01117233     0.08500
H1082       H  0.92641689  0.44302276  0.13149107     0.06000
H1083       H  0.85716337  0.41384727  0.01364024     0.05800
C1084       C  0.89254600  0.47193529  0.25567029     0.02900
C1085       C  0.87973165  0.43626377  0.26839358    -0.13300
C1086       C  0.89385439  0.42085627  0.30722641     0.00400
C1087       C  0.92333351  0.43940039  0.33285085    -0.11800
C1088       C  0.93710767  0.47476815  0.32061603     0.02900
C1089       C  0.92073006  0.49143838  0.28306945    -0.11200
H1090       H  0.85900421  0.41941871  0.24795428     0.08500
H1091       H  0.93574348  0.42622443  0.36153442     0.06000
H1092       H  0.93136839  0.51898632  0.27450745     0.05800
O1093       O  0.96233275  0.03695908  0.08515171    -0.81200
O1094       O  0.60149365  0.13523509  0.10586404    -0.65800
O1095       O  0.53897877  0.04728426  0.07556899    -1.12400
C1096       C  0.55263815  0.02820093  0.22419942     1.05700
O1097       O  0.64343811  0.10302802  0.14746340    -0.79100
O1098       O  0.63046292  0.02441305  0.14944280    -0.66600
Ni1099     Ni  0.49361689  0.05176498  0.53988505     1.34900
C1100       C  0.61215908  0.99569486  0.13034484     0.84500
O1101       O  0.57464049  0.09894781  0.52879595    -0.79600
O1102       O  0.52462982  0.06608807  0.49428192    -0.89900
C1103       C  0.63515473  0.13050166  0.12239161     0.84000
O1104       O  0.97833193  0.10621378  0.05248984    -0.68100
O1105       O  0.58573183  0.04272498  0.22217287    -0.87400
C1106       C  0.49525611  0.13496421  0.07305307     0.84900
C1107       C  0.55542238  0.08530751  0.49455274     1.06400
H1108       H  0.54957121  0.10023122  0.16458368     0.38200
O1109       O  0.56469971  0.07972524  0.14890608    -1.10000
O1110       O  0.57539244  0.99597316  0.12616289    -0.66700
Ni1111     Ni  0.53299539  0.03471987  0.13395037     1.26300
O1112       O  0.52776860  0.13101124  0.09338203    -0.66900
O1113       O  0.52808481  0.02396368  0.19261916    -0.79200
C1114       C  0.96715264  0.50172201  0.09514664     0.84300
O1115       O  0.49823715  0.49243778  0.11590126    -0.66400
Ni1116     Ni  0.61219551  0.07207089  0.18243177     1.27400
Ni1117     Ni  0.56956994  0.09155127  0.08952344     1.26100
H1118       H  0.55506309  0.02694307  0.06039355     0.38800
O1119       O  0.50698725  0.15564222  0.37091004    -0.81200
O1120       O  0.63275164  0.01087839  0.38691766    -0.65800
O1121       O  0.56302347  0.09510972  0.35311964    -1.12400
C1122       C  0.97316088  0.99091557  0.34013875     1.05700
O1123       O  0.60470931  0.48770396  0.32681059    -0.79100
O1124       O  0.54264722  0.98745000  0.27993418    -0.66600
Ni1125     Ni  0.56150641  0.14566161  0.38488811     1.34900
C1126       C  0.54088351  0.02147200  0.26718446     0.84500
O1127       O  0.64089865  0.08624406  0.36613442    -0.79600
O1128       O  0.61630236  0.14207270  0.39926568    -0.89900
C1129       C  0.62902891  0.48249628  0.35720881     0.84000
O1130       O  0.54925655  0.12176369  0.43529704    -0.68100
O1131       O  0.50133354  0.46669695  0.34719189    -0.87400
C1132       C  0.56758140  0.09379775  0.45245682     0.84900
C1133       C  0.64159977  0.12329562  0.37547334     1.06400
H1134       H  0.54635270  0.02101155  0.40295128     0.38200
O1135       O  0.55253049  0.02492015  0.37301530    -1.10000
O1136       O  0.53182868  0.05179467  0.29155940    -0.66700
Ni1137     Ni  0.51864868  0.06308929  0.35089580     1.26300
O1138       O  0.59395828  0.07186455  0.43370160    -0.66900
O1139       O  0.97610595  0.02839419  0.34287411    -0.79200
C1140       C  0.98361694  0.13841795  0.34278976     0.84300
O1141       O  0.98605922  0.10226150  0.32990602    -0.66400
Ni1142     Ni  0.55427849  0.47553215  0.33866191     1.27400
Ni1143     Ni  0.59829024  0.05483729  0.37180449     1.26100
H1144       H  0.57007531  0.10025085  0.32385025     0.38800
C1145       C  0.64128805  0.41580573  0.04211099     0.02900
C1146       C  0.62488640  0.45009798  0.06423440    -0.13300
C1147       C  0.63385605  0.46092818  0.10897748     0.00400
C1148       C  0.66223283  0.43832252  0.13150155    -0.11800
C1149       C  0.67840485  0.40294229  0.11026666     0.02900
C1150       C  0.66648103  0.39167009  0.06633317    -0.11200
H1151       H  0.60528852  0.46922069  0.04668496     0.08500
H1152       H  0.67112126  0.44775302  0.16521754     0.06000
H1153       H  0.67853519  0.36447148  0.05038465     0.05800
C1154       C  0.65200155  0.37987218  0.31043872     0.02900
C1155       C  0.63133332  0.41395288  0.32547336    -0.13300
C1156       C  0.64800851  0.44302494  0.35572396     0.00400
C1157       C  0.68406360  0.43503950  0.37583229    -0.11800
C1158       C  0.70344208  0.39897809  0.36339848     0.02900
C1159       C  0.68786777  0.37221597  0.33027680    -0.11200
H1160       H  0.60274113  0.41895038  0.31097959     0.08500
H1161       H  0.69777304  0.45714853  0.39838049     0.06000
H1162       H  0.70466795  0.34615724  0.31851996     0.05800
C1163       C  0.70588583  0.13707456  0.03575249     0.02900
C1164       C  0.72338789  0.17256033  0.04822783    -0.13300
C1165       C  0.71215096  0.19789200  0.08547937     0.00400
C1166       C  0.68332157  0.18503315  0.11229688    -0.11800
C1167       C  0.66654792  0.14783496  0.10025220     0.02900
C1168       C  0.67752945  0.12523829  0.06186929    -0.11200
H1169       H  0.74654917  0.18014883  0.02824981     0.08500
H1170       H  0.67401255  0.20335461  0.14120004     0.06000
H1171       H  0.66312553  0.09805379  0.05184886     0.05800
C1172       C  0.70726909  0.14734668  0.28746136     0.02900
C1173       C  0.72728543  0.17845944  0.30966348    -0.13300
C1174       C  0.71750183  0.19471304  0.35209379     0.00400
C1175       C  0.68800860  0.17834960  0.37389756    -0.11800
C1176       C  0.67050629  0.14437333  0.35387910     0.02900
C1177       C  0.67925297  0.13013749  0.31030094    -0.11200
H1178       H  0.75056008  0.19083974  0.29354271     0.08500
H1179       H  0.68002854  0.19073217  0.40648720     0.06000
H1180       H  0.66339648  0.10595071  0.29389025     0.05800
O1181       O  0.75388199  0.24322662  0.06108613    -0.81200
O1182       O  0.86487863  0.36011452  0.07054017    -0.65800
O1183       O  0.80908822  0.27752337  0.10821644    -1.12400
C1184       C  0.71302941  0.38100420  0.12802271     1.05700
O1185       O  0.85150294  0.40143402  0.12943526    -0.79100
O1186       O  0.80648509  0.37214377  0.19029206    -0.66600
Ni1187     Ni  0.80714874  0.23056109  0.06993266     1.34900
C1188       C  0.79468278  0.34075518  0.20394464     0.84500
O1189       O  0.88216080  0.28126809  0.07467840    -0.79600
O1190       O  0.86159612  0.21960527  0.57810910    -0.89900
C1191       C  0.86885141  0.39303379  0.09324741     0.84000
O1192       O  0.81553049  0.24677041  0.51200246    -0.68100
O1193       O  0.74071171  0.40133549  0.14559043    -0.87400
C1194       C  0.81344591  0.28122369  0.49966194     0.84900
C1195       C  0.88833274  0.24352540  0.07423766     1.06400
H1196       H  0.78125435  0.35814944  0.07295814     0.38200
O1197       O  0.79237473  0.35000318  0.10045601    -1.10000
O1198       O  0.77355614  0.31635372  0.18012180    -0.66700
Ni1199     Ni  0.76142613  0.30871980  0.11613683     1.26300
O1200       O  0.81803864  0.31128762  0.52696575    -0.66900
O1201       O  0.71587881  0.34338305  0.11932092    -0.79200
C1202       C  0.73206669  0.23657377  0.09153479     0.84300
O1203       O  0.73093669  0.26249548  0.12477383    -0.66400
Ni1204     Ni  0.79615068  0.39789159  0.13763651     1.27400
Ni1205     Ni  0.83777698  0.31728283  0.08789216     1.26100
H1206       H  0.81989801  0.27106426  0.13653880     0.38800
O1207       O  0.85478961  0.24907309  0.28728258    -0.81200
O1208       O  0.76744728  0.39008874  0.34885714    -0.65800
O1209       O  0.84452731  0.30884992  0.34752265    -1.12400
C1210       C  0.73854029  0.22962593  0.37010580     1.05700
O1211       O  0.74888482  0.36856403  0.40966796    -0.79100
O1212       O  0.76682058  0.30221141  0.44849933    -0.66600
Ni1213     Ni  0.87588178  0.29970626  0.29814775     1.34900
C1214       C  0.80029015  0.28642421  0.45344540     0.84500
O1215       O  0.84298082  0.38784091  0.33320762    -0.79600
O1216       O  0.89532074  0.35188808  0.30815660    -0.89900
C1217       C  0.74262849  0.39003256  0.37804680     0.84000
O1218       O  0.84366330  0.31613512  0.25030209    -0.68100
O1219       O  0.71978680  0.26072602  0.38573313    -0.87400
C1220       C  0.81001295  0.33160974  0.24828102     0.84900
C1221       C  0.87711755  0.38467410  0.31854678     1.06400
H1222       H  0.75781177  0.30194618  0.32793477     0.38200
O1223       O  0.77244766  0.30812770  0.35517118    -1.10000
O1224       O  0.82108546  0.27352475  0.42093653    -0.66700
Ni1225     Ni  0.81078386  0.26732634  0.35692720     1.26300
O1226       O  0.79153146  0.34275098  0.28279224    -0.66900
O1227       O  0.77469034  0.22793639  0.36355299    -0.79200
C1228       C  0.86549917  0.22372477  0.31340596     0.84300
O1229       O  0.85151846  0.22702413  0.35161849    -0.66400
Ni1230     Ni  0.73485723  0.31493549  0.39878049     1.27400
Ni1231     Ni  0.80667900  0.34973001  0.34559340     1.26100
H1232       H  0.86102379  0.31415401  0.37355933     0.38800
C1233       C  0.87544897  0.48921739  0.21517792    -0.03600
C1234       C  0.83800919  0.47964758  0.19921559    -0.09400
C1235       C  0.81929202  0.00000242  0.16646128    -0.17100
C1236       C  0.83669633  0.03140686  0.14985981     0.25100
C1237       C  0.87502518  0.03923818  0.16229987    -0.18700
C1238       C  0.89462948  0.51762036  0.19396542    -0.07600
C1239       C  0.81123406  0.06116604  0.13278551    -0.14100
C1240       C  0.78341129  0.08328313  0.13719742    -0.13800
C1241       C  0.75287075  0.10108592  0.16362342     0.25000
C1242       C  0.75114424  0.14176302  0.17477674    -0.19200
C1243       C  0.73263345  0.15727583  0.21287602    -0.07700
C1244       C  0.71739857  0.13208420  0.24155595    -0.03700
C1245       C  0.71585250  0.09163908  0.22749990    -0.09100
C1246       C  0.73304615  0.07643615  0.18851927    -0.16700
H1247       H  0.82135993  0.45869505  0.21404076     0.11400
H1248       H  0.78943794  0.99397598  0.15766891     0.10700
H1249       H  0.88884694  0.06369951  0.14995479     0.10700
H1250       H  0.92404767  0.52477165  0.20318240     0.11200
H1251       H  0.76649089  0.16118875  0.15601413     0.11300
H1252       H  0.73259325  0.18882224  0.22127488     0.11200
H1253       H  0.70439757  0.07108092  0.24815483     0.11400
H1254       H  0.73447047  0.04477403  0.18047449     0.10200
C1255       C  0.88527998  0.46766044  0.96340273    -0.03600
C1256       C  0.88764187  0.00726387  0.95404943    -0.09400
C1257       C  0.86319765  0.02275100  0.92202184    -0.17100
C1258       C  0.83531396  0.99940052  0.89963319     0.25100
C1259       C  0.83576649  0.45907713  0.90470574    -0.18700
C1260       C  0.86139675  0.44295328  0.93547347    -0.07600
C1261       C  0.80001878  0.01901506  0.88639507    -0.14100
C1262       C  0.77170260  0.03936123  0.89487146    -0.13800
C1263       C  0.74693712  0.06313428  0.92406975     0.25000
C1264       C  0.74387100  0.10399658  0.92230264    -0.19200
C1265       C  0.72920352  0.12813597  0.95793596    -0.07700
C1266       C  0.71800946  0.11165042  0.99601934    -0.03700
C1267       C  0.72010834  0.07043738  0.99672658    -0.09100
C1268       C  0.73428184  0.04644007  0.96097631    -0.16700
H1269       H  0.90502904  0.02781831  0.97448416     0.11400
H1270       H  0.86261630  0.05424187  0.91916412     0.10700
H1271       H  0.81364077  0.44104170  0.88850504     0.10700
H1272       H  0.85976049  0.41198678  0.94010362     0.11200
H1273       H  0.75466257  0.11732395  0.89449632     0.11300
H1274       H  0.72777699  0.15972623  0.95623707     0.11200
H1275       H  0.71278208  0.05672609  0.02582937     0.11400
H1276       H  0.73786014  0.01496286  0.96344394     0.10200
C1277       C  0.63721171  0.35404713  0.27205487    -0.03600
C1278       C  0.64180887  0.31285246  0.27128939    -0.09400
C1279       C  0.62553001  0.28864150  0.23652950    -0.17100
C1280       C  0.60455763  0.30524569  0.20209163     0.25100
C1281       C  0.60148504  0.34621474  0.20138879    -0.18700
C1282       C  0.61792712  0.37050597  0.23600206    -0.07600
C1283       C  0.57966047  0.28075521  0.17372878    -0.14100
C1284       C  0.55337014  0.26009755  0.16162866    -0.13800
C1285       C  0.51975307  0.23761852  0.16425654     0.25000
C1286       C  0.52403047  0.19699930  0.16707934    -0.19200
C1287       C  0.49535103  0.17707367  0.18562814    -0.07700
C1288       C  0.96374280  0.19829656  0.20485567    -0.03700
C1289       C  0.95740622  0.23813149  0.19691295    -0.09100
C1290       C  0.98530781  0.25761427  0.17653774    -0.16700
H1291       H  0.65636951  0.29932952  0.29854905     0.11400
H1292       H  0.62738585  0.25695256  0.23784970     0.10700
H1293       H  0.58482515  0.35939629  0.17527270     0.10700
H1294       H  0.61478745  0.40216941  0.23504371     0.11200
H1295       H  0.55094594  0.18144594  0.15875858     0.11300
H1296       H  0.50029249  0.14612897  0.19012898     0.11200
H1297       H  0.93359194  0.25563256  0.21133392     0.11400
H1298       H  0.98197530  0.28924590  0.17524989     0.10200
C1299       C  0.00529977  0.25063994  0.98804323    -0.03600
C1300       C  0.00115459  0.29163331  0.98590071    -0.09400
C1301       C  0.01681777  0.30937733  0.95170280    -0.17100
C1302       C  0.53811950  0.28688671  0.91964487     0.25100
C1303       C  0.54335488  0.24605024  0.42171611    -0.18700
C1304       C  0.02650994  0.22790024  0.45529870    -0.07600
C1305       C  0.56209857  0.30776701  0.89316197    -0.14100
C1306       C  0.58388570  0.33385744  0.89056790    -0.13800
C1307       C  0.60391765  0.36577195  0.91391555     0.25000
C1308       C  0.64206645  0.35912263  0.92858773    -0.19200
C1309       C  0.65583112  0.37886449  0.96807217    -0.07700
C1310       C  0.63089436  0.40395916  0.99453452    -0.03700
C1311       C  0.59425391  0.41412685  0.97632949    -0.09100
C1312       C  0.58124150  0.39565752  0.93595889    -0.16700
H1313       H  0.98647682  0.31032051  0.01119668     0.11400
H1314       H  0.01417046  0.34118294  0.95177586     0.10700
H1315       H  0.56084957  0.22849916  0.39796873     0.10700
H1316       H  0.52985895  0.19626360  0.45544022     0.11200
H1317       H  0.66014108  0.33607833  0.41198553     0.11300
H1318       H  0.68508671  0.37203895  0.97926755     0.11200
H1319       H  0.57389410  0.43329220  0.99478862     0.11400
H1320       H  0.55146169  0.40080716  0.92524742     0.10200
C1321       C  0.98607575  0.23150781  0.52303155     0.02900
C1322       C  0.94989758  0.24644351  0.53687364    -0.13300
C1323       C  0.92790373  0.22678232  0.06484303     0.00400
C1324       C  0.94251093  0.18998604  0.07825863    -0.11800
C1325       C  0.97984650  0.17544028  0.06629976     0.02900
C1326       C  0.00157449  0.19698406  0.53977561    -0.11200
H1327       H  0.93714781  0.27239322  0.52317713     0.08500
H1328       H  0.92507772  0.17281912  0.09744593     0.06000
H1329       H  0.02970956  0.18536491  0.52969961     0.05800
C1330       C  0.94578412  0.18351890  0.74326465     0.02900
C1331       C  0.90868676  0.19625965  0.75533589    -0.13300
C1332       C  0.89732558  0.19601895  0.79945280     0.00400
C1333       C  0.92130775  0.17698556  0.82989927    -0.11800
C1334       C  0.95724979  0.16124537  0.81633857     0.02500
C1335       C  0.96938027  0.16514187  0.77394007    -0.11200
H1336       H  0.89034246  0.21060032  0.73147066     0.08500
H1337       H  0.91298680  0.17582991  0.86367987     0.06000
H1338       H  0.99858168  0.15534826  0.76594073     0.05800
C1339       C  0.90133227  0.45500711  0.50660771     0.02900
C1340       C  0.93212716  0.47458545  0.52863004    -0.13300
C1341       C  0.94064552  0.47190377  0.57381312     0.00400
C1342       C  0.92043706  0.44531593  0.59666755    -0.11800
C1343       C  0.89149537  0.42256499  0.57372934     0.02900
C1344       C  0.88182963  0.42849748  0.52947080    -0.11200
H1345       H  0.94858277  0.49408337  0.51119983     0.08500
H1346       H  0.92666409  0.44280759  0.63148371     0.06000
H1347       H  0.85726443  0.41363711  0.51379570     0.05800
C1348       C  0.89298558  0.47159675  0.75524395     0.02900
C1349       C  0.88015969  0.43590911  0.76794346    -0.13300
C1350       C  0.89417275  0.42054515  0.80685788     0.00400
C1351       C  0.92357246  0.43914937  0.83256728    -0.11800
C1352       C  0.93732590  0.47454660  0.82038262     0.02900
C1353       C  0.92102371  0.49118478  0.78277898    -0.11200
H1354       H  0.85949137  0.41903975  0.74744242     0.08500
H1355       H  0.93592551  0.42600875  0.86130018     0.06000
H1356       H  0.93162586  0.51876579  0.77426087     0.05800
O1357       O  0.96244162  0.03677670  0.58529731    -0.81200
O1358       O  0.60168017  0.13499403  0.60569438    -0.65800
O1359       O  0.53904747  0.04712615  0.57552676    -1.12400
C1360       C  0.55271173  0.02812868  0.72416894     1.05700
O1361       O  0.64357502  0.10295666  0.64749979    -0.79100
O1362       O  0.63059422  0.02441226  0.64954039    -0.66600
Ni1363     Ni  0.49364590  0.05179597  0.03975500     1.34900
C1364       C  0.61234498  0.99570257  0.63035082     0.84500
O1365       O  0.57445083  0.09927822  0.02886341    -0.79600
O1366       O  0.52481339  0.06593024  0.99419824    -0.89900
C1367       C  0.63532386  0.13031303  0.62227121     0.84000
O1368       O  0.97826902  0.10610895  0.55292905    -0.68100
O1369       O  0.58576358  0.04274032  0.72217708    -0.87400
C1370       C  0.49536170  0.13486720  0.57323494     0.84900
C1371       C  0.55545873  0.08539326  0.99455444     1.06400
H1372       H  0.54961353  0.10013569  0.66446868     0.38200
O1373       O  0.56479125  0.07960414  0.64883917    -1.10000
O1374       O  0.57558311  0.99591254  0.62611429    -0.66700
Ni1375     Ni  0.53311620  0.03455943  0.63389970     1.26300
O1376       O  0.52802830  0.13092093  0.59322601    -0.66900
O1377       O  0.52820058  0.02379248  0.69256043    -0.79200
C1378       C  0.96730256  0.50152339  0.59516036     0.84300
O1379       O  0.49843159  0.49220719  0.61582064    -0.66400
Ni1380     Ni  0.61226187  0.07205541  0.68245626     1.27400
Ni1381     Ni  0.56971578  0.09133860  0.58944785     1.26100
H1382       H  0.55506139  0.02675942  0.56029293     0.38800
O1383       O  0.50669863  0.15540391  0.87106631    -0.81200
O1384       O  0.63288261  0.01108069  0.88702415    -0.65800
O1385       O  0.56295917  0.09510964  0.85305672    -1.12400
C1386       C  0.97332004  0.99074289  0.83999516     1.05700
O1387       O  0.60495270  0.48769589  0.82694253    -0.79100
O1388       O  0.54293849  0.98737311  0.77992857    -0.66600
Ni1389     Ni  0.56130909  0.14569526  0.88477056     1.34900
C1390       C  0.54097325  0.02138059  0.76714449     0.84500
O1391       O  0.64083840  0.08642768  0.86606494    -0.79600
O1392       O  0.61617598  0.14239289  0.89890329    -0.89900
C1393       C  0.62919291  0.48258953  0.85745802     0.84000
O1394       O  0.54932238  0.12189455  0.93533686    -0.68100
O1395       O  0.50153463  0.46657663  0.84705558    -0.87400
C1396       C  0.56764515  0.09392084  0.95246979     0.84900
C1397       C  0.64153736  0.12349093  0.87529267     1.06400
H1398       H  0.54645873  0.02100222  0.90293337     0.38200
O1399       O  0.55262678  0.02490461  0.87299295    -1.10000
O1400       O  0.53180824  0.05168578  0.79149303    -0.66700
Ni1401     Ni  0.51866112  0.06299405  0.85083740     1.26300
O1402       O  0.59398119  0.07196954  0.93367299    -0.66900
O1403       O  0.97617802  0.02822960  0.84281062    -0.79200
C1404       C  0.98344001  0.13818319  0.84277005     0.84300
O1405       O  0.98601847  0.10206579  0.82976577    -0.66400
Ni1406     Ni  0.55449286  0.47548748  0.83866634     1.27400
Ni1407     Ni  0.59831827  0.05493329  0.87178119     1.26100
H1408       H  0.56998944  0.10024300  0.82377695     0.38800
C1409       C  0.64144196  0.41589778  0.54206024     0.02900
C1410       C  0.62512512  0.45022750  0.56417316    -0.13300
C1411       C  0.63410521  0.46101744  0.60891940     0.00400
C1412       C  0.66248641  0.43840517  0.63142299    -0.11800
C1413       C  0.67859171  0.40299482  0.61019192     0.02900
C1414       C  0.66658994  0.39171317  0.56628764    -0.11200
H1415       H  0.60555539  0.46938339  0.54663134     0.08500
H1416       H  0.67139524  0.44782989  0.66513399     0.06000
H1417       H  0.67855665  0.36446500  0.55036494     0.05800
C1418       C  0.65191913  0.37995114  0.81096894     0.02900
C1419       C  0.63120933  0.41389396  0.82636189    -0.13300
C1420       C  0.64807258  0.44306977  0.85630322     0.00400
C1421       C  0.68427414  0.43514593  0.87612557    -0.11800
C1422       C  0.70366459  0.39911837  0.86350896     0.02900
C1423       C  0.68798110  0.37240202  0.83041235    -0.11200
H1424       H  0.60246641  0.41880574  0.81223768     0.08500
H1425       H  0.69808254  0.45728565  0.89853979     0.06000
H1426       H  0.70481989  0.34644744  0.81841332     0.05800
C1427       C  0.70593956  0.13697200  0.53547958     0.02900
C1428       C  0.72335986  0.17251468  0.54790457    -0.13300
C1429       C  0.71219207  0.19778879  0.58523771     0.00400
C1430       C  0.68346568  0.18484467  0.61213591    -0.11800
C1431       C  0.66672253  0.14762871  0.60010817     0.02900
C1432       C  0.67766584  0.12506707  0.56167921    -0.11200
H1433       H  0.74643466  0.18017555  0.52784839     0.08500
H1434       H  0.67419731  0.20312488  0.64108624     0.06000
H1435       H  0.66328771  0.09786250  0.55168667     0.05800
C1436       C  0.70742204  0.14743620  0.78740438     0.02900
C1437       C  0.72727790  0.17867916  0.80956667    -0.13300
C1438       C  0.71748890  0.19485815  0.85202563     0.00400
C1439       C  0.68806250  0.17842095  0.87384143    -0.11800
C1440       C  0.67058355  0.14445519  0.85379188     0.02900
C1441       C  0.67943325  0.13017337  0.81024821    -0.11200
H1442       H  0.75048766  0.19116570  0.79344020     0.08500
H1443       H  0.68008345  0.19077043  0.90644474     0.06000
H1444       H  0.66365346  0.10592783  0.79384804     0.05800
O1445       O  0.75394952  0.24313414  0.56089915    -0.81200
O1446       O  0.86505356  0.35997129  0.57056151    -0.65800
O1447       O  0.80914767  0.27741105  0.60807401    -1.12400
C1448       C  0.71318797  0.38099206  0.62793601     1.05700
O1449       O  0.85169649  0.40123787  0.62949429    -0.79100
O1450       O  0.80660883  0.37194052  0.69025123    -0.66600
Ni1451     Ni  0.80721478  0.23046928  0.56976209     1.34900
C1452       C  0.79477069  0.34055031  0.70385808     0.84500
O1453       O  0.88227903  0.28115062  0.57464229    -0.79600
O1454       O  0.86152418  0.21971458  0.07825989    -0.89900
C1455       C  0.86904535  0.39286197  0.59330740     0.84000
O1456       O  0.81547682  0.24678803  0.01213642    -0.68100
O1457       O  0.74088683  0.40127017  0.64555860    -0.87400
C1458       C  0.81336630  0.28122531  0.99975100     0.84900
C1459       C  0.88843219  0.24340787  0.57418014     1.06400
H1460       H  0.78141877  0.35810438  0.57289865     0.38200
O1461       O  0.79251171  0.34991631  0.60039046    -1.10000
O1462       O  0.77362785  0.31618908  0.67999508    -0.66700
Ni1463     Ni  0.76150596  0.30864185  0.61599634     1.26300
O1464       O  0.81787958  0.31131731  0.02703774    -0.66900
O1465       O  0.71599332  0.34336962  0.61919586    -0.79200
C1466       C  0.73211074  0.23648210  0.59132372     0.84300
O1467       O  0.73095841  0.26241692  0.62455593    -0.66400
Ni1468     Ni  0.79633079  0.39776254  0.63764064     1.27400
Ni1469     Ni  0.83789768  0.31716743  0.58783547     1.26100
H1470       H  0.81993287  0.27092141  0.63639583     0.38800
O1471       O  0.85461014  0.24886100  0.78735610    -0.81200
O1472       O  0.76767812  0.39008289  0.84881053    -0.65800
O1473       O  0.84464862  0.30869900  0.84748668    -1.12400
C1474       C  0.73852044  0.22972469  0.87011278     1.05700
O1475       O  0.74913671  0.36860180  0.90965563    -0.79100
O1476       O  0.76681141  0.30217224  0.94848896    -0.66600
Ni1477     Ni  0.87589556  0.29940357  0.79803610     1.34900
C1478       C  0.80027317  0.28638419  0.95349829     0.84500
O1479       O  0.84326367  0.38767402  0.83306269    -0.79600
O1480       O  0.89545943  0.35155780  0.80784707    -0.89900
C1481       C  0.74288385  0.39009045  0.87804930     0.84000
O1482       O  0.84367380  0.31576058  0.75018284    -0.68100
O1483       O  0.71976773  0.26086766  0.88562011    -0.87400
C1484       C  0.81008319  0.33137021  0.74819239     0.84900
C1485       C  0.87735625  0.38440498  0.81825698     1.06400
H1486       H  0.75793972  0.30193611  0.82793496     0.38200
O1487       O  0.77257456  0.30811563  0.85517304    -1.10000
O1488       O  0.82112492  0.27350362  0.92102408    -0.66700
Ni1489     Ni  0.81083896  0.26724742  0.85700079     1.26300
O1490       O  0.79168838  0.34266788  0.78272793    -0.66900
O1491       O  0.77469384  0.22794870  0.86372395    -0.79200
C1492       C  0.86541746  0.22354321  0.81345412     0.84300
O1493       O  0.85150739  0.22685531  0.85170717    -0.66400
Ni1494     Ni  0.73495802  0.31502139  0.89873337     1.27400
Ni1495     Ni  0.80687061  0.34964958  0.84553086     1.26100
H1496       H  0.86118780  0.31399504  0.87348985     0.38800
C1497       C  0.87601912  0.48884622  0.71466319    -0.03600
C1498       C  0.83860488  0.47930155  0.69860678    -0.09400
C1499       C  0.81992629  0.99971742  0.66587584    -0.17100
C1500       C  0.83733216  0.03119812  0.64943839     0.25100
C1501       C  0.87569444  0.03892840  0.66185721    -0.18700
C1502       C  0.89526605  0.51723789  0.69349713    -0.07600
C1503       C  0.81181853  0.06110360  0.63271602    -0.14100
C1504       C  0.78396898  0.08316924  0.63734989    -0.13800
C1505       C  0.75339958  0.10094377  0.66378395     0.25000
C1506       C  0.75151289  0.14164404  0.67477123    -0.19200
C1507       C  0.73292521  0.15721394  0.71280698    -0.07700
C1508       C  0.71771262  0.13207305  0.74156503    -0.03700
C1509       C  0.71633211  0.09158387  0.72766209    -0.09100
C1510       C  0.73363153  0.07631321  0.68876309    -0.16700
H1511       H  0.82192886  0.45832974  0.71336401     0.11400
H1512       H  0.79006663  0.99373460  0.65706194     0.10700
H1513       H  0.88954806  0.06340794  0.64959086     0.10700
H1514       H  0.92469070  0.52433512  0.70276610     0.11200
H1515       H  0.76678804  0.16106166  0.65592546     0.11300
H1516       H  0.73277883  0.18877980  0.72107934     0.11200
H1517       H  0.70491236  0.07105821  0.74838249     0.11400
H1518       H  0.73515943  0.04463733  0.68084101     0.10200
C1519       C  0.88525608  0.46733952  0.46335036    -0.03600
C1520       C  0.88776726  0.00681857  0.45364653    -0.09400
C1521       C  0.86323625  0.02223733  0.42164153    -0.17100
C1522       C  0.83514237  0.99893281  0.39959989     0.25100
C1523       C  0.83542758  0.45868870  0.40500349    -0.18700
C1524       C  0.86115261  0.44261817  0.43570665    -0.07600
C1525       C  0.79992383  0.01863649  0.38625539    -0.14100
C1526       C  0.77165901  0.03910566  0.39460448    -0.13800
C1527       C  0.74693341  0.06295045  0.42378379     0.25000
C1528       C  0.74390835  0.10381388  0.42199206    -0.19200
C1529       C  0.72928327  0.12798933  0.45763366    -0.07700
C1530       C  0.71809091  0.11153799  0.49574668    -0.03700
C1531       C  0.72020881  0.07032911  0.49649070    -0.09100
C1532       C  0.73431295  0.04630122  0.46073107    -0.16700
H1533       H  0.90535832  0.02738365  0.47378611     0.11400
H1534       H  0.86280518  0.05368017  0.41851273     0.10700
H1535       H  0.81314694  0.44069008  0.38909267     0.10700
H1536       H  0.85942341  0.41169814  0.44050853     0.11200
H1537       H  0.75468863  0.11711004  0.39415787     0.11300
H1538       H  0.72787635  0.15957493  0.45590767     0.11200
H1539       H  0.71293132  0.05663571  0.52562247     0.11400
H1540       H  0.73787623  0.01482645  0.46322573     0.10200
C1541       C  0.63699108  0.35423761  0.77254684    -0.03600
C1542       C  0.64211613  0.31305382  0.77127792    -0.09400
C1543       C  0.62587553  0.28891555  0.73642885    -0.17100
C1544       C  0.60437838  0.30556865  0.70240717     0.25100
C1545       C  0.60072420  0.34656187  0.70220397    -0.18700
C1546       C  0.61714557  0.37078862  0.73689494    -0.07600
C1547       C  0.57960710  0.28094241  0.67401806    -0.14100
C1548       C  0.55348031  0.26007452  0.66186089    -0.13800
C1549       C  0.51995290  0.23740222  0.66431434     0.25000
C1550       C  0.52437866  0.19682147  0.66738723    -0.19200
C1551       C  0.49565937  0.17685470  0.68582948    -0.07700
C1552       C  0.96384853  0.19801850  0.70474436    -0.03700
C1553       C  0.95736084  0.23774473  0.69640559    -0.09100
C1554       C  0.98531336  0.25725875  0.67614116    -0.16700
H1555       H  0.65709821  0.29944036  0.79821170     0.11400
H1556       H  0.62819201  0.25719701  0.73737044     0.10700
H1557       H  0.58365937  0.35977898  0.67641857     0.10700
H1558       H  0.61358593  0.40245865  0.73628523     0.11200
H1559       H  0.55139245  0.18134352  0.65931962     0.11300
H1560       H  0.50069042  0.14595388  0.69049021     0.11200
H1561       H  0.93336740  0.25520599  0.71046156     0.11400
H1562       H  0.98183022  0.28884952  0.67458939     0.10200
C1563       C  0.00558678  0.25049669  0.48821347    -0.03600
C1564       C  0.00142271  0.29149312  0.48609850    -0.09400
C1565       C  0.01727346  0.30930101  0.45206727    -0.17100
C1566       C  0.53872925  0.28686377  0.42011218     0.25100
C1567       C  0.54265641  0.24606665  0.92123262    -0.18700
C1568       C  0.02597766  0.22797724  0.95497384    -0.07600
C1569       C  0.56254943  0.30782018  0.39352524    -0.14100
C1570       C  0.58413036  0.33403443  0.39064639    -0.13800
C1571       C  0.60418204  0.36604514  0.41374556     0.25000
C1572       C  0.64227285  0.35928683  0.42853192    -0.19200
C1573       C  0.65598576  0.37893794  0.46807421    -0.07700
C1574       C  0.63106223  0.40409206  0.49447254    -0.03700
C1575       C  0.59450147  0.41441415  0.47614697    -0.09100
C1576       C  0.58154571  0.39602537  0.43569706    -0.16700
H1577       H  0.98658371  0.31014247  0.51129352     0.11400
H1578       H  0.01457010  0.34110556  0.45214177     0.10700
H1579       H  0.56001356  0.22846669  0.89738774     0.10700
H1580       H  0.52929356  0.19634255  0.95513790     0.11200
H1581       H  0.65997035  0.33598823  0.91196532     0.11300
H1582       H  0.68519175  0.37199744  0.47934805     0.11200
H1583       H  0.57415790  0.43364712  0.49455068     0.11400
H1584       H  0.55180569  0.40126671  0.42488594     0.10200
C1585       C  0.98592159  0.73169349  0.02298118     0.02900
C1586       C  0.94976154  0.74661626  0.03687974    -0.13300
C1587       C  0.92801670  0.72665618  0.56486345     0.00400
C1588       C  0.94262486  0.68989797  0.57838470    -0.11800
C1589       C  0.97996231  0.67533023  0.56645695     0.02900
C1590       C  0.00145388  0.69715682  0.03967742    -0.11200
H1591       H  0.93700065  0.77258362  0.02322759     0.08500
H1592       H  0.92518800  0.67277332  0.59761611     0.06000
H1593       H  0.02958993  0.68556508  0.02957109     0.05800
C1594       C  0.94576972  0.68365614  0.24330572     0.02900
C1595       C  0.90862870  0.69621569  0.25531781    -0.13300
C1596       C  0.89733290  0.69608889  0.29945348     0.00400
C1597       C  0.92138266  0.67714686  0.32993703    -0.11800
C1598       C  0.95736892  0.66147801  0.31638562     0.02500
C1599       C  0.96947587  0.66542770  0.27399249    -0.11200
H1600       H  0.89024644  0.71046694  0.23141071     0.08500
H1601       H  0.91309044  0.67603538  0.36373430     0.06000
H1602       H  0.99871064  0.65577107  0.26596676     0.05800
C1603       C  0.90130558  0.95516827  0.00658296     0.02900
C1604       C  0.93212649  0.97466342  0.02861677    -0.13300
C1605       C  0.94052997  0.97205818  0.07381869     0.00400
C1606       C  0.92025537  0.94549899  0.09665573    -0.11800
C1607       C  0.89133622  0.92272943  0.07366830     0.02900
C1608       C  0.88172679  0.92867235  0.02938801    -0.11200
H1609       H  0.94863217  0.99411660  0.01117673     0.08500
H1610       H  0.92641348  0.94302700  0.13149126     0.06000
H1611       H  0.85716589  0.91384982  0.01363606     0.05800
C1612       C  0.89254596  0.97194258  0.25567754     0.02900
C1613       C  0.87972866  0.93627267  0.26840173    -0.13300
C1614       C  0.89384878  0.92086552  0.30723546     0.00400
C1615       C  0.92332841  0.93940831  0.33286073    -0.11800
C1616       C  0.93710542  0.97477485  0.32062553     0.02900
C1617       C  0.92073091  0.99144427  0.28307697    -0.11200
H1618       H  0.85900146  0.91942773  0.24796202     0.08500
H1619       H  0.93573683  0.92623203  0.36154483     0.06000
H1620       H  0.93137218  0.01899065  0.27451431     0.05800
O1621       O  0.96233453  0.53695305  0.08514633    -0.81200
O1622       O  0.60149227  0.63523549  0.10586120    -0.65800
O1623       O  0.53897620  0.54728566  0.07557074    -1.12400
C1624       C  0.55263481  0.52820797  0.22420464     1.05700
O1625       O  0.64343676  0.60303078  0.14746291    -0.79100
O1626       O  0.63046028  0.52441632  0.14945065    -0.66600
Ni1627     Ni  0.49362027  0.55176344  0.53988200     1.34900
C1628       C  0.61215720  0.49569788  0.13035186     0.84500
O1629       O  0.57464342  0.59894999  0.52879766    -0.79600
O1630       O  0.52463387  0.56609005  0.49428143    -0.89900
C1631       C  0.63515315  0.63050341  0.12238967     0.84000
O1632       O  0.97833272  0.60621089  0.05248991    -0.68100
O1633       O  0.58572707  0.54273550  0.22217856    -0.87400
C1634       C  0.49525557  0.63496678  0.07305286     0.84900
C1635       C  0.55542609  0.58531010  0.49455384     1.06400
H1636       H  0.54956905  0.60023506  0.16458247     0.38200
O1637       O  0.56469788  0.57972844  0.14890634    -1.10000
O1638       O  0.57539059  0.49597634  0.12616671    -0.66700
Ni1639     Ni  0.53299319  0.53472301  0.13395318     1.26300
O1640       O  0.52776827  0.63101339  0.09338107    -0.66900
O1641       O  0.52808280  0.52396753  0.19262313    -0.79200
C1642       C  0.96714932  0.00172773  0.09515125     0.84300
O1643       O  0.49824047  0.99243383  0.11589718    -0.66400
Ni1644     Ni  0.61219269  0.57207702  0.18243429     1.27400
Ni1645     Ni  0.56956824  0.59155197  0.08952273     1.26100
H1646       H  0.55505988  0.52694355  0.06039563     0.38800
O1647       O  0.50700473  0.65565125  0.37090497    -0.81200
O1648       O  0.63275329  0.51087238  0.38692173    -0.65800
O1649       O  0.56303031  0.59510799  0.35312339    -1.12400
C1650       C  0.97316244  0.49091043  0.34012847     1.05700
O1651       O  0.60470976  0.98770769  0.32680650    -0.79100
O1652       O  0.54264691  0.48745418  0.27993915    -0.66600
Ni1653     Ni  0.56152084  0.64566118  0.38488950     1.34900
C1654       C  0.54088073  0.52147673  0.26719020     0.84500
O1655       O  0.64090645  0.58623590  0.36613620    -0.79600
O1656       O  0.61631467  0.64206280  0.39927312    -0.89900
C1657       C  0.62902784  0.98250099  0.35720638     0.84000
O1658       O  0.54926412  0.62176606  0.43529761    -0.68100
O1659       O  0.50133541  0.96669349  0.34718551    -0.87400
C1660       C  0.56758698  0.59379944  0.45245878     0.84900
C1661       C  0.64160994  0.62328693  0.37547735     1.06400
H1662       H  0.54635641  0.52101104  0.40295738     0.38200
O1663       O  0.55253293  0.52491998  0.37302127    -1.10000
O1664       O  0.53182482  0.55179821  0.29156644    -0.66700
Ni1665     Ni  0.51865173  0.56309159  0.35090533     1.26300
O1666       O  0.59396336  0.57186403  0.43370507    -0.66900
O1667       O  0.97610617  0.52838897  0.34286054    -0.79200
C1668       C  0.98360702  0.63841124  0.34278364     0.84300
O1669       O  0.98605667  0.60225685  0.32989136    -0.66400
Ni1670     Ni  0.55427993  0.97553153  0.33865710     1.27400
Ni1671     Ni  0.59829476  0.55483341  0.37180847     1.26100
H1672       H  0.57008151  0.60024675  0.32385317     0.38800
C1673       C  0.64128535  0.91580287  0.04210167     0.02900
C1674       C  0.62488533  0.95009562  0.06422578    -0.13300
C1675       C  0.63385655  0.96092535  0.10896860     0.00400
C1676       C  0.66223271  0.93831860  0.13149175    -0.11800
C1677       C  0.67840393  0.90293844  0.11025631     0.02900
C1678       C  0.66647903  0.89166656  0.06632278    -0.11200
H1679       H  0.60528730  0.96921877  0.04667702     0.08500
H1680       H  0.67112161  0.94774850  0.16520776     0.06000
H1681       H  0.67853273  0.86446807  0.05037337     0.05800
C1682       C  0.65199042  0.87987166  0.31044972     0.02900
C1683       C  0.63132430  0.91395422  0.32548258    -0.13300
C1684       C  0.64800272  0.94302782  0.35572848     0.00400
C1685       C  0.68405797  0.93504187  0.37583595    -0.11800
C1686       C  0.70343415  0.89897871  0.36340470     0.02900
C1687       C  0.68785694  0.87221473  0.33028689    -0.11200
H1688       H  0.60273219  0.91895268  0.31098902     0.08500
H1689       H  0.69776991  0.95715220  0.39838013     0.06000
H1690       H  0.70465568  0.84615470  0.31853101     0.05800
C1691       C  0.70587221  0.63708366  0.03573983     0.02900
C1692       C  0.72337681  0.67256765  0.04821684    -0.13300
C1693       C  0.71214807  0.69789445  0.08547563     0.00400
C1694       C  0.68332312  0.68503296  0.11229733    -0.11800
C1695       C  0.66654508  0.64783752  0.10024895     0.02900
C1696       C  0.67751873  0.62524601  0.06185960    -0.11200
H1697       H  0.74653541  0.68015747  0.02823591     0.08500
H1698       H  0.67402062  0.70335041  0.14120630     0.06000
H1699       H  0.66311164  0.59806373  0.05183744     0.05800
C1700       C  0.70726923  0.64734582  0.28745847     0.02900
C1701       C  0.72728088  0.67846367  0.30965746    -0.13300
C1702       C  0.71750027  0.69471421  0.35208992     0.00400
C1703       C  0.68801335  0.67834475  0.37389783    -0.11800
C1704       C  0.67051405  0.64436608  0.35388099     0.02900
C1705       C  0.67925906  0.63013135  0.31030203    -0.11200
H1706       H  0.75055113  0.69084885  0.29353411     0.08500
H1707       H  0.68003556  0.69072518  0.40648908     0.06000
H1708       H  0.66340534  0.60594159  0.29389366     0.05800
O1709       O  0.75388605  0.74322513  0.06108773    -0.81200
O1710       O  0.86488110  0.86011602  0.07053942    -0.65800
O1711       O  0.80909158  0.77752391  0.10821778    -1.12400
C1712       C  0.71302874  0.88100119  0.12801328     1.05700
O1713       O  0.85150126  0.90143706  0.12943189    -0.79100
O1714       O  0.80648348  0.87214689  0.19028868    -0.66600
Ni1715     Ni  0.80715283  0.73056098  0.06993507     1.34900
C1716       C  0.79468090  0.84075911  0.20394289     0.84500
O1717       O  0.88216524  0.78126958  0.07468153    -0.79600
O1718       O  0.86159265  0.71960418  0.57810812    -0.89900
C1719       C  0.86885126  0.89303655  0.09324508     0.84000
O1720       O  0.81552906  0.74677184  0.51200094    -0.68100
O1721       O  0.74070972  0.90133329  0.14558303    -0.87400
C1722       C  0.81344296  0.78122542  0.49966116     0.84900
C1723       C  0.88833697  0.74352674  0.07424001     1.06400
H1724       H  0.78125642  0.85814723  0.07295413     0.38200
O1725       O  0.79237630  0.85000241  0.10045301    -1.10000
O1726       O  0.77355532  0.81635638  0.18012036    -0.66700
Ni1727     Ni  0.76142824  0.80871883  0.11613475     1.26300
O1728       O  0.81803437  0.81128902  0.52696603    -0.66900
O1729       O  0.71587938  0.84338008  0.11931295    -0.79200
C1730       C  0.73206917  0.73657313  0.09153509     0.84300
O1731       O  0.73093940  0.76249464  0.12477407    -0.66400
Ni1732     Ni  0.79614905  0.89789214  0.13763132     1.27400
Ni1733     Ni  0.83778016  0.81728360  0.08789258     1.26100
H1734       H  0.81990066  0.77106578  0.13654085     0.38800
O1735       O  0.85478986  0.74908065  0.28728071    -0.81200
O1736       O  0.76743857  0.89009179  0.34885707    -0.65800
O1737       O  0.84452224  0.80885627  0.34752273    -1.12400
C1738       C  0.73853753  0.72962795  0.37010219     1.05700
O1739       O  0.74888106  0.86856503  0.40966892    -0.79100
O1740       O  0.76681642  0.80221157  0.44849841    -0.66600
Ni1741     Ni  0.87587909  0.79971503  0.29815002     1.34900
C1742       C  0.80028679  0.78642625  0.45344441     0.84500
O1743       O  0.84297288  0.88784807  0.33320930    -0.79600
O1744       O  0.89531577  0.85189748  0.30816304    -0.89900
C1745       C  0.74262182  0.89003425  0.37804894     0.84000
O1746       O  0.84366158  0.81614407  0.25030357    -0.68100
O1747       O  0.71978313  0.76072743  0.38572976    -0.87400
C1748       C  0.81001008  0.83161579  0.24828059     0.84900
C1749       C  0.87711121  0.88468274  0.31855280     1.06400
H1750       H  0.75780700  0.80194942  0.32793326     0.38200
O1751       O  0.77244288  0.80813100  0.35516980    -1.10000
O1752       O  0.82108249  0.77352871  0.42093516    -0.66700
Ni1753     Ni  0.81078033  0.76733107  0.35692559     1.26300
O1754       O  0.79152648  0.84275541  0.28279089    -0.66900
O1755       O  0.77468776  0.72793951  0.36355012    -0.79200
C1756       C  0.86549704  0.72373104  0.31340370     0.84300
O1757       O  0.85151589  0.72703023  0.35161601    -0.66400
Ni1758     Ni  0.73485318  0.81493684  0.39877970     1.27400
Ni1759     Ni  0.80667236  0.84973496  0.34559290     1.26100
H1760       H  0.86101760  0.81416089  0.37356006     0.38800
C1761       C  0.87544989  0.98922496  0.21518479    -0.03600
C1762       C  0.83801096  0.97965381  0.19922017    -0.09400
C1763       C  0.81929080  0.49999470  0.16645487    -0.17100
C1764       C  0.83669673  0.53139649  0.14984958     0.25100
C1765       C  0.87502643  0.53922572  0.16228734    -0.18700
C1766       C  0.89462928  0.01763075  0.19397541    -0.07600
C1767       C  0.81123585  0.56115811  0.13277779    -0.14100
C1768       C  0.78341587  0.58327838  0.13719504    -0.13800
C1769       C  0.75287779  0.60108124  0.16362510     0.25000
C1770       C  0.75114736  0.64175888  0.17477484    -0.19200
C1771       C  0.73263290  0.65727270  0.21287149    -0.07700
C1772       C  0.71739976  0.63208177  0.24155357    -0.03700
C1773       C  0.71585870  0.59163547  0.22750127    -0.09100
C1774       C  0.73305546  0.57643145  0.18852306    -0.16700
H1775       H  0.82136197  0.95869924  0.21404222     0.11400
H1776       H  0.78943608  0.49396985  0.15766429     0.10700
H1777       H  0.88884947  0.56368486  0.14993929     0.10700
H1778       H  0.92404706  0.02478298  0.20319324     0.11200
H1779       H  0.76649212  0.66118479  0.15601053     0.11300
H1780       H  0.73258846  0.68881971  0.22126670     0.11200
H1781       H  0.70440543  0.57107739  0.24815744     0.11400
H1782       H  0.73448267  0.54476904  0.18048112     0.10200
C1783       C  0.88528109  0.96766753  0.96340202    -0.03600
C1784       C  0.88764327  0.50725623  0.95404946    -0.09400
C1785       C  0.86319785  0.52274542  0.92202453    -0.17100
C1786       C  0.83531055  0.49939770  0.89963903     0.25100
C1787       C  0.83577373  0.95907966  0.90469881    -0.18700
C1788       C  0.86140257  0.94295817  0.93546957    -0.07600
C1789       C  0.80001767  0.51901608  0.88640029    -0.14100
C1790       C  0.77170298  0.53936598  0.89487253    -0.13800
C1791       C  0.74693405  0.56314144  0.92406455     0.25000
C1792       C  0.74387123  0.60400381  0.92229673    -0.19200
C1793       C  0.72919778  0.62814415  0.95792594    -0.07700
C1794       C  0.71799513  0.61165943  0.99600627    -0.03700
C1795       C  0.72009027  0.57044628  0.99671314    -0.09100
C1796       C  0.73426929  0.54644820  0.96096687    -0.16700
H1797       H  0.90503368  0.52780915  0.97448203     0.11400
H1798       H  0.86261929  0.55423611  0.91916622     0.10700
H1799       H  0.81365103  0.94104198  0.88849532     0.10700
H1800       H  0.85976864  0.91199134  0.94009917     0.11200
H1801       H  0.75466980  0.61733039  0.89449366     0.11300
H1802       H  0.72777467  0.65973437  0.95622702     0.11200
H1803       H  0.71275838  0.55673497  0.02581373     0.11400
H1804       H  0.73784472  0.51497089  0.96343526     0.10200
C1805       C  0.63720035  0.85404761  0.27206516    -0.03600
C1806       C  0.64179509  0.81285284  0.27129954    -0.09400
C1807       C  0.62551960  0.78864306  0.23653635    -0.17100
C1808       C  0.60455260  0.80524843  0.20209541     0.25100
C1809       C  0.60148193  0.84621768  0.20139340    -0.18700
C1810       C  0.61792070  0.87050777  0.23601009    -0.07600
C1811       C  0.57965809  0.78075862  0.17372794    -0.14100
C1812       C  0.55336963  0.76009917  0.16162515    -0.13800
C1813       C  0.51975415  0.73761724  0.16425176     0.25000
C1814       C  0.52403498  0.69699888  0.16707985    -0.19200
C1815       C  0.49535717  0.67707285  0.18563115    -0.07700
C1816       C  0.96373813  0.69829818  0.20485499    -0.03700
C1817       C  0.95740579  0.73813529  0.19691950    -0.09100
C1818       C  0.98530909  0.75761793  0.17654716    -0.16700
H1819       H  0.65635197  0.79932905  0.29856091     0.11400
H1820       H  0.62737386  0.75695403  0.23785592     0.10700
H1821       H  0.58482618  0.85940027  0.17527494     0.10700
H1822       H  0.61478303  0.90217136  0.23505208     0.11200
H1823       H  0.55095184  0.68144707  0.15876173     0.11300
H1824       H  0.50030119  0.64612937  0.19013642     0.11200
H1825       H  0.93359343  0.75563715  0.21134372     0.11400
H1826       H  0.98197972  0.78925034  0.17526438     0.10200
C1827       C  0.00530578  0.75064004  0.98804770    -0.03600
C1828       C  0.00116193  0.79163374  0.98590714    -0.09400
C1829       C  0.01682519  0.80937851  0.95170990    -0.17100
C1830       C  0.53811327  0.78688503  0.91963929     0.25100
C1831       C  0.54336003  0.74605393  0.42171918    -0.18700
C1832       C  0.02650486  0.72789784  0.45529645    -0.07600
C1833       C  0.56209263  0.80776494  0.89315609    -0.14100
C1834       C  0.58387940  0.83385556  0.89056061    -0.13800
C1835       C  0.60391096  0.86577150  0.91390631     0.25000
C1836       C  0.64206108  0.85912454  0.92857537    -0.19200
C1837       C  0.65582640  0.87886536  0.96806029    -0.07700
C1838       C  0.63088957  0.90395723  0.99452543    -0.03700
C1839       C  0.59424765  0.91412355  0.97632317    -0.09100
C1840       C  0.58123431  0.89565510  0.93595238    -0.16700
H1841       H  0.98648492  0.81032065  0.01120393     0.11400
H1842       H  0.01417847  0.84118425  0.95178416     0.10700
H1843       H  0.56085493  0.72850362  0.39797138     0.10700
H1844       H  0.52986402  0.69626602  0.45544085     0.11200
H1845       H  0.66014508  0.83607360  0.41200197     0.11300
H1846       H  0.68508273  0.87204107  0.97925405     0.11200
H1847       H  0.57388788  0.93328703  0.99478472     0.11400
H1848       H  0.55145368  0.90080329  0.92524310     0.10200
C1849       C  0.98607210  0.73150756  0.52303028     0.02900
C1850       C  0.94989286  0.74644157  0.53687021    -0.13300
C1851       C  0.92790776  0.72678302  0.06484554     0.00400
C1852       C  0.94251259  0.68998486  0.07825824    -0.11800
C1853       C  0.97984747  0.67543757  0.06629885     0.02900
C1854       C  0.00157299  0.69698621  0.53977764    -0.11200
H1855       H  0.93714160  0.77238928  0.52317076     0.08500
H1856       H  0.92507823  0.67281789  0.09744420     0.06000
H1857       H  0.02970875  0.68536827  0.52970263     0.05800
C1858       C  0.94579227  0.68352208  0.74326860     0.02900
C1859       C  0.90869402  0.69626045  0.75533928    -0.13300
C1860       C  0.89733179  0.69601770  0.79945569     0.00400
C1861       C  0.92131503  0.67698632  0.82990266    -0.11800
C1862       C  0.95725911  0.66125079  0.81634357     0.02500
C1863       C  0.96939001  0.66514853  0.77394560    -0.11200
H1864       H  0.89034853  0.71059900  0.73147348     0.08500
H1865       H  0.91299325  0.67582884  0.86368267     0.06000
H1866       H  0.99859225  0.65535726  0.76594739     0.05800
C1867       C  0.90133202  0.95500091  0.50660801     0.02900
C1868       C  0.93212932  0.97457738  0.52862763    -0.13300
C1869       C  0.94064858  0.97189771  0.57381084     0.00400
C1870       C  0.92043979  0.94531166  0.59666762    -0.11800
C1871       C  0.89149596  0.92256198  0.57373165     0.02900
C1872       C  0.88182834  0.92849423  0.52947365    -0.11200
H1873       H  0.94858574  0.99407315  0.51119548     0.08500
H1874       H  0.92666807  0.94280385  0.63148365     0.06000
H1875       H  0.85726120  0.91363564  0.51380083     0.05800
C1876       C  0.89298533  0.97158910  0.75523554     0.02900
C1877       C  0.88016237  0.93589998  0.76793460    -0.13300
C1878       C  0.89417849  0.92053572  0.80684801     0.00400
C1879       C  0.92357798  0.93914116  0.83255609    -0.11800
C1880       C  0.93732820  0.97453974  0.82037187     0.02900
C1881       C  0.92102252  0.99117873  0.78277035    -0.11200
H1882       H  0.85949362  0.91903043  0.74743437     0.08500
H1883       H  0.93593294  0.92600075  0.86128823     0.06000
H1884       H  0.93162150  0.01876143  0.77425302     0.05800
O1885       O  0.96243959  0.53678194  0.58530329    -0.81200
O1886       O  0.60168182  0.63499410  0.60569711    -0.65800
O1887       O  0.53905035  0.54712530  0.57552465    -1.12400
C1888       C  0.55271520  0.52812194  0.72416325     1.05700
O1889       O  0.64357679  0.60295390  0.64749952    -0.79100
O1890       O  0.63059690  0.52440905  0.64953134    -0.66600
Ni1891     Ni  0.49364308  0.55179786  0.03975740     1.34900
C1892       C  0.61234678  0.49569965  0.63034269     0.84500
O1893       O  0.57444855  0.59927646  0.02886150    -0.79600
O1894       O  0.52481019  0.56592845  0.99419835    -0.89900
C1895       C  0.63532583  0.63031147  0.62227260     0.84000
O1896       O  0.97826774  0.60611120  0.55293005    -0.68100
O1897       O  0.58576864  0.54272975  0.72217075    -0.87400
C1898       C  0.49536259  0.63486520  0.57323381     0.84900
C1899       C  0.55545581  0.58539097  0.99455311     1.06400
H1900       H  0.54961593  0.60013239  0.66446964     0.38200
O1901       O  0.56479332  0.57960134  0.64883851    -1.10000
O1902       O  0.57558487  0.49590950  0.62610984    -0.66700
Ni1903     Ni  0.53311855  0.53455676  0.63389645     1.26300
O1904       O  0.52802887  0.63091949  0.59322606    -0.66900
O1905       O  0.52820262  0.52378913  0.69255603    -0.79200
C1906       C  0.96730591  0.00151853  0.59515543     0.84300
O1907       O  0.49842821  0.99221054  0.61582512    -0.66400
Ni1908     Ni  0.61226504  0.57204926  0.68245303     1.27400
Ni1909     Ni  0.56971778  0.59133843  0.58944825     1.26100
H1910       H  0.55506509  0.52675940  0.56029052     0.38800
O1911       O  0.50668174  0.65539502  0.87107132    -0.81200
O1912       O  0.63288110  0.51108669  0.88701932    -0.65800
O1913       O  0.56295263  0.59511155  0.85305300    -1.12400
C1914       C  0.97331849  0.49074807  0.84000647     1.05700
O1915       O  0.60495235  0.98769220  0.82694732    -0.79100
O1916       O  0.54293826  0.48736932  0.77992318    -0.66600
Ni1917     Ni  0.56129522  0.64569593  0.88476907     1.34900
C1918       C  0.54097608  0.52137631  0.76713838     0.84500
O1919       O  0.64083095  0.58643603  0.86606307    -0.79600
O1920       O  0.61616412  0.64240304  0.89889577    -0.89900
C1921       C  0.62919410  0.98258487  0.85746112     0.84000
O1922       O  0.54931574  0.62189274  0.93533640    -0.68100
O1923       O  0.50153279  0.96657992  0.84706205    -0.87400
C1924       C  0.56764033  0.59391946  0.95246770     0.84900
C1925       C  0.64152775  0.62349979  0.87528890     1.06400
H1926       H  0.54645531  0.52100276  0.90292670     0.38200
O1927       O  0.55262457  0.52490482  0.87298660    -1.10000
O1928       O  0.53181255  0.55168278  0.79148573    -0.66700
Ni1929     Ni  0.51865832  0.56299184  0.85082767     1.26300
O1930       O  0.59397644  0.57196994  0.93366913    -0.66900
O1931       O  0.97617772  0.52823487  0.84282528    -0.79200
C1932       C  0.98344993  0.63818996  0.84277562     0.84300
O1933       O  0.98602102  0.60207040  0.82977992    -0.66400
Ni1934     Ni  0.55449151  0.97548800  0.83867167     1.27400
Ni1935     Ni  0.59831402  0.55493728  0.87177684     1.26100
H1936       H  0.56998353  0.60024737  0.82377408     0.38800
C1937       C  0.64144457  0.91590066  0.54207072     0.02900
C1938       C  0.62512632  0.95022993  0.56418303    -0.13300
C1939       C  0.63410487  0.96102019  0.60892953     0.00400
C1940       C  0.66248674  0.93840896  0.63143397    -0.11800
C1941       C  0.67859267  0.90299846  0.61020336     0.02900
C1942       C  0.66659152  0.89171644  0.56629929    -0.11200
H1943       H  0.60555696  0.96938563  0.54664062     0.08500
H1944       H  0.67139527  0.94783431  0.66514490     0.06000
H1945       H  0.67855827  0.86446793  0.55037762     0.05800
C1946       C  0.65193169  0.87995239  0.81095705     0.02900
C1947       C  0.63121936  0.91389289  0.82635226    -0.13300
C1948       C  0.64807895  0.94306701  0.85629895     0.00400
C1949       C  0.68428025  0.93514369  0.87612247    -0.11800
C1950       C  0.70367328  0.89911811  0.86350299     0.02900
C1951       C  0.68799320  0.87240401  0.83040171    -0.11200
H1952       H  0.60247636  0.91880351  0.81222777     0.08500
H1953       H  0.69808591  0.95728195  0.89854122     0.06000
H1954       H  0.70483375  0.84645108  0.81840145     0.05800
C1955       C  0.70595355  0.63696300  0.53549145     0.02900
C1956       C  0.72337161  0.67250727  0.54791496    -0.13300
C1957       C  0.71219559  0.69778628  0.58524086     0.00400
C1958       C  0.68346465  0.68484490  0.61213483    -0.11800
C1959       C  0.66672564  0.64762636  0.60011064     0.02900
C1960       C  0.67767657  0.62505974  0.56168786    -0.11200
H1961       H  0.74644933  0.68016663  0.52786189     0.08500
H1962       H  0.67418992  0.70312905  0.64107949     0.06000
H1963       H  0.66330132  0.59785317  0.55169683     0.05800
C1964       C  0.70742190  0.64743772  0.78740747     0.02900
C1965       C  0.72728206  0.67867611  0.80957242    -0.13300
C1966       C  0.71749048  0.69485776  0.85202954     0.00400
C1967       C  0.68805822  0.67842611  0.87384155    -0.11800
C1968       C  0.67057637  0.64446266  0.85379039     0.02900
C1969       C  0.67942759  0.63017985  0.81024753    -0.11200
H1970       H  0.75049575  0.69115818  0.79344807     0.08500
H1971       H  0.68007716  0.69077748  0.90644345     0.06000
H1972       H  0.66364525  0.60593706  0.79384511     0.05800
O1973       O  0.75394635  0.74313552  0.56089732    -0.81200
O1974       O  0.86505197  0.85996999  0.57056284    -0.65800
O1975       O  0.80914496  0.77741058  0.60807280    -1.12400
C1976       C  0.71318897  0.88099480  0.62794599     1.05700
O1977       O  0.85169854  0.90123495  0.62949809    -0.79100
O1978       O  0.80661108  0.87193701  0.69025467    -0.66600
Ni1979     Ni  0.80721152  0.73046945  0.56975987     1.34900
C1980       C  0.79477296  0.84054614  0.70385993     0.84500
O1981       O  0.88227556  0.78114925  0.57464011    -0.79600
O1982       O  0.86152838  0.71971582  0.07826154    -0.89900
C1983       C  0.86904597  0.89285952  0.59331022     0.84000
O1984       O  0.81547925  0.74678659  0.01213814    -0.68100
O1985       O  0.74088918  0.90127202  0.64556664    -0.87400
C1986       C  0.81337031  0.78122359  0.99975201     0.84900
C1987       C  0.88842879  0.74340662  0.57417886     1.06400
H1988       H  0.78141749  0.85810663  0.57290276     0.38200
O1989       O  0.79251078  0.84991710  0.60039360    -1.10000
O1990       O  0.77362897  0.81618628  0.67999660    -0.66700
Ni1991     Ni  0.76150446  0.80864274  0.61599838     1.26300
O1992       O  0.81788508  0.81131590  0.02703771    -0.66900
O1993       O  0.71599326  0.84337241  0.61920374    -0.79200
C1994       C  0.73210902  0.73648261  0.59132304     0.84300
O1995       O  0.73095633  0.76241757  0.62455535    -0.66400
Ni1996     Ni  0.79633282  0.89776188  0.63764622     1.27400
Ni1997     Ni  0.83789531  0.81716676  0.58783549     1.26100
H1998       H  0.81993078  0.77091993  0.63639411     0.38800
O1999       O  0.85460972  0.74885391  0.78735790    -0.81200
O2000       O  0.76768746  0.89008010  0.84881077    -0.65800
O2001       O  0.84465416  0.80869284  0.84748684    -1.12400
C2002       C  0.73852343  0.72972322  0.87011664     1.05700
O2003       O  0.74914129  0.86860130  0.90965507    -0.79100
O2004       O  0.76681647  0.80217241  0.94849038    -0.66600
Ni2005     Ni  0.87589856  0.79939492  0.79803392     1.34900
C2006       C  0.80027736  0.78638226  0.95349955     0.84500
O2007       O  0.84327193  0.88766690  0.83306059    -0.79600
O2008       O  0.89546492  0.85154835  0.80784091    -0.89900
C2009       C  0.74289126  0.89008919  0.87804749     0.84000
O2010       O  0.84367600  0.81575198  0.75018153    -0.68100
O2011       O  0.71977186  0.76086680  0.88562414    -0.87400
C2012       C  0.81008638  0.83136405  0.74819293     0.84900
C2013       C  0.87736291  0.88439630  0.81825063     1.06400
H2014       H  0.75794469  0.80193318  0.82793702     0.38200
O2015       O  0.77257977  0.80811266  0.85517489    -1.10000
O2016       O  0.82112849  0.77349965  0.92102555    -0.66700
Ni2017     Ni  0.81084283  0.76724293  0.85700253     1.26300
O2018       O  0.79169358  0.84266314  0.78272938    -0.66900
O2019       O  0.77469664  0.72794594  0.86372690    -0.79200
C2020       C  0.86541979  0.72353736  0.81345603     0.84300
O2021       O  0.85151023  0.72684932  0.85170934    -0.66400
Ni2022     Ni  0.73496274  0.81502052  0.89873482     1.27400
Ni2023     Ni  0.80687769  0.84964479  0.84553143     1.26100
H2024       H  0.86119430  0.81398828  0.87348905     0.38800
C2025       C  0.87601825  0.98883785  0.71465456    -0.03600
C2026       C  0.83860376  0.97929355  0.69859894    -0.09400
C2027       C  0.81992682  0.49972666  0.66588543    -0.17100
C2028       C  0.83733162  0.53120890  0.64945023     0.25100
C2029       C  0.87569330  0.53894084  0.66187060    -0.18700
C2030       C  0.89526610  0.01722734  0.69348616    -0.07600
C2031       C  0.81181701  0.56111159  0.63272407    -0.14100
C2032       C  0.78396454  0.58317384  0.63735257    -0.13800
C2033       C  0.75339302  0.60094770  0.66378340     0.25000
C2034       C  0.75150870  0.64164763  0.67477282    -0.19200
C2035       C  0.73292455  0.65721684  0.71281098    -0.07700
C2036       C  0.71771167  0.63207544  0.74156805    -0.03700
C2037       C  0.71632808  0.59158693  0.72766317    -0.09100
C2038       C  0.73362452  0.57631697  0.68876204    -0.16700
H2039       H  0.82192768  0.95832287  0.71335808     0.11400
H2040       H  0.79006754  0.49374280  0.65707059     0.10700
H2041       H  0.88954591  0.56342196  0.64960630     0.10700
H2042       H  0.92469091  0.02432415  0.70275490     0.11200
H2043       H  0.76678453  0.66106516  0.65592763     0.11300
H2044       H  0.73278117  0.68878230  0.72108598     0.11200
H2045       H  0.70490805  0.57106135  0.74838355     0.11400
H2046       H  0.73515082  0.54464125  0.68083837     0.10200
C2047       C  0.88525411  0.96733349  0.46335158    -0.03600
C2048       C  0.88776608  0.50682540  0.45364659    -0.09400
C2049       C  0.86323590  0.52224208  0.42163925    -0.17100
C2050       C  0.83514590  0.49893453  0.39959421     0.25100
C2051       C  0.83541971  0.95868739  0.40501073    -0.18700
C2052       C  0.86114572  0.94261448  0.43571129    -0.07600
C2053       C  0.79992489  0.51863404  0.38625028    -0.14100
C2054       C  0.77165856  0.53909953  0.39460341    -0.13800
C2055       C  0.74693667  0.56294237  0.42378886     0.25000
C2056       C  0.74390898  0.60380573  0.42199766    -0.19200
C2057       C  0.72929011  0.62798061  0.45764319    -0.07700
C2058       C  0.71810580  0.61152879  0.49575924    -0.03700
C2059       C  0.72022694  0.57032004  0.49650389    -0.09100
C2060       C  0.73432537  0.54629255  0.46074046    -0.16700
H2061       H  0.90535366  0.52739207  0.47378862     0.11400
H2062       H  0.86280158  0.55368521  0.41851146     0.10700
H2063       H  0.81313602  0.94069114  0.38910264     0.10700
H2064       H  0.85941377  0.91169491  0.44051405     0.11200
H2065       H  0.75468257  0.61710239  0.39416019     0.11300
H2066       H  0.72788026  0.65956622  0.45591707     0.11200
H2067       H  0.71295473  0.55662694  0.52563790     0.11400
H2068       H  0.73789104  0.51481786  0.46323452     0.10200
C2069       C  0.63700422  0.85423808  0.77253526    -0.03600
C2070       C  0.64213222  0.81305443  0.77126583    -0.09400
C2071       C  0.62588741  0.78891502  0.73642058    -0.17100
C2072       C  0.60438350  0.80556695  0.70240316     0.25100
C2073       C  0.60072732  0.84655997  0.70219935    -0.18700
C2074       C  0.61715291  0.87078783  0.73688633    -0.07600
C2075       C  0.57960839  0.78094005  0.67402018    -0.14100
C2076       C  0.55347940  0.76007393  0.66186683    -0.13800
C2077       C  0.51995041  0.73740455  0.66432186     0.25000
C2078       C  0.52437244  0.69682254  0.66738721    -0.19200
C2079       C  0.49565158  0.67685554  0.68582630    -0.07700
C2080       C  0.96385443  0.69801759  0.70474423    -0.03700
C2081       C  0.95736231  0.73774109  0.69639627    -0.09100
C2082       C  0.98531313  0.75725455  0.67612810    -0.16700
H2083       H  0.65711882  0.79944173  0.79819725     0.11400
H2084       H  0.62820569  0.75719658  0.73736259     0.10700
H2085       H  0.58365740  0.85977606  0.67641717     0.10700
H2086       H  0.61359099  0.90245769  0.73627666     0.11200
H2087       H  0.55138460  0.68134308  0.65931568     0.11300
H2088       H  0.50067996  0.64595318  0.69048120     0.11200
H2089       H  0.93336676  0.75520180  0.71044805     0.11400
H2090       H  0.98182671  0.78884430  0.67456977     0.10200
C2091       C  0.00558211  0.75049524  0.48821078    -0.03600
C2092       C  0.00141753  0.79149139  0.48609418    -0.09400
C2093       C  0.01726841  0.80929830  0.45206229    -0.17100
C2094       C  0.53873403  0.78686755  0.42011653     0.25100
C2095       C  0.54265057  0.74606513  0.92122850    -0.18700
C2096       C  0.02598360  0.72797797  0.95497769    -0.07600
C2097       C  0.56255423  0.80782475  0.39353061    -0.14100
C2098       C  0.58413611  0.83403845  0.39065374    -0.13800
C2099       C  0.60418913  0.86604703  0.41375507     0.25000
C2100       C  0.64227808  0.85928481  0.42854548    -0.19200
C2101       C  0.65599033  0.87893648  0.46808757    -0.07700
C2102       C  0.63106733  0.90409445  0.49448250    -0.03700
C2103       C  0.59450893  0.91441967  0.47615301    -0.09100
C2104       C  0.58155417  0.89603040  0.43570301    -0.16700
H2105       H  0.98657812  0.81014115  0.51128854     0.11400
H2106       H  0.01456493  0.84110274  0.45213571     0.10700
H2107       H  0.56000802  0.72846470  0.89738430     0.10700
H2108       H  0.52928888  0.69634204  0.95513633     0.11200
H2109       H  0.65996563  0.83599207  0.91195060     0.11300
H2110       H  0.68519515  0.87199358  0.47936358     0.11200
H2111       H  0.57416571  0.93365561  0.49455349     0.11400
H2112       H  0.55181541  0.90127453  0.42488884     0.10200
loop_ 
_geom_bond_atom_site_label_1 
_geom_bond_atom_site_label_2 
_geom_bond_distance 
_geom_bond_site_symmetry_2 
_ccdc_geom_bond_type 
C1            C2   1.402       .  A
C1            C6   1.403       .  A
C1          C243   1.491   1_554  S
C2          C267   1.400       .  A
C2            H7   1.083       .  S
C3            C4   1.421       .  A
C3          C266   1.400       .  A
C3          C403   1.494       .  S
C4            C5   1.418       .  A
C4            H8   1.083       .  S
C5          C270   1.406       .  A
C5         C1370   1.487       .  S
C6          C269   1.406       .  A
C6            H9   1.084       .  S
C10          C11   1.394       .  A
C10          C15   1.392       .  A
C10         C232   1.484       .  S
C11          C12   1.414       .  A
C11          H16   1.083       .  S
C12          C13   1.406       .  A
C12         C172   1.472       .  S
C13          C14   1.401       .  A
C13          H17   1.083       .  S
C14          C15   1.393       .  A
C14          C84   1.446       .  S
C15          H18   1.085       .  S
C19          C20   1.399       .  A
C19          C24   1.402       .  A
C19         C199   1.497   1_554  S
C20          C21   1.404       .  A
C20          H25   1.083       .  S
C21          C22   1.418       .  A
C21          C58   1.487       .  S
C22          C23   1.418       .  A
C22          H26   1.083       .  S
C23          C24   1.405       .  A
C23         C135   1.486       .  S
C24          H27   1.083       .  S
C28          C29   1.405       .  A
C28          C33   1.408       .  A
C28         C177   1.504       .  S
C29          C30   1.399       .  A
C29          H34   1.081       .  S
C30          C31   1.399       .  A
C30         C165   1.461       .  S
C31          C32   1.403       .  A
C31          H35   1.084       .  S
C32          C33   1.411       .  A
C32         C594   1.471       .  S
C33          H36   1.081       .  S
O37       Ni1363   1.909       .  S
O37         C586   1.268       .  A
O38         Ni61   1.912       .  S
O38          C47   1.264       .  A
O39         Ni61   1.889       .  S
O39         Ni55   1.887       .  S
O39        Ni307   1.888   1_455  S
O39          H62   0.967       .  S
C40          C70   1.427       .  S
C40          O57   1.261       .  A
C40          O49   1.277       .  A
O41         Ni60   1.955       .  S
O41          C47   1.278       .  A
O42         Ni60   1.926       .  S
O42          C44   1.272   1_545  A
Ni43         O46   1.902   1_655  S
Ni43       O1357   1.909       .  S
Ni43       O1368   1.916       .  S
Ni43        O303   1.888   1_655  S
C44         C619   1.489       .  S
C44          O54   1.278       .  A
O45        Ni325   1.902       .  S
O45          C51   1.276       .  A
O46          C51   1.278       .  A
C47         C111   1.477       .  S
O48       Ni1363   1.917       .  S
O48        C1106   1.267       .  A
O49         Ni60   1.924       .  S
C50        C1325   1.487       .  S
C50          O56   1.274   1_655  A
C50        O1104   1.267       .  A
C51          C76   1.423       .  S
H52          O53   0.959       .  S
O53         Ni61   1.903       .  S
O53         Ni55   1.936       .  S
O53         Ni60   1.926       .  S
O54         Ni55   1.943   1_565  S
Ni55         O57   1.871       .  S
Ni55        O587   1.946   1_445  S
O56         Ni61   1.936       .  S
C58         O565   1.268       .  A
C58        O1115   1.272       .  A
O59        Ni583   1.946   1_655  S
O59        C1114   1.272       .  A
Ni61        O309   1.903       .  S
O63         Ni69   1.947       .  S
O63        C1140   1.276   1_455  A
O64         Ni87   1.954       .  S
O64         C601   1.268   1_545  A
O65         Ni69   1.896       .  S
O65         Ni87   1.911       .  S
O65         Ni81   1.923       .  S
O65          H88   0.966       .  S
C66         C560   1.471       .  S
C66          O83   1.281   1_565  A
C66        O1659   1.278       .  A
O67         Ni86   1.875       .  S
O67          C73   1.247       .  A
O68        Ni614   1.892       .  S
O68          C70   1.255   1_565  A
Ni69         O72   1.938       .  S
Ni69         O74   1.874       .  S
C70          O80   1.252       .  A
O71         Ni87   1.887       .  S
O71          C77   1.270       .  A
O72          C77   1.274       .  A
C73         C100   1.470       .  S
C73         O592   1.268       .  A
O74          C76   1.265       .  A
O75         Ni86   1.909       .  S
O75        C1650   1.278   1_455  A
C76          O82   1.276       .  A
C77         C120   1.470       .  S
H78          O79   0.966       .  S
O79         Ni87   1.929       .  S
O79         Ni81   1.870       .  S
O79        Ni614   1.898   1_545  S
O80         Ni81   1.881       .  S
Ni81       O1141   1.855   1_455  S
Ni81       O1139   1.927   1_455  S
O82         Ni87   1.928       .  S
O83       Ni1137   1.927       .  S
C84          O85   1.259       .  A
C84        O1119   1.276       .  A
O85       Ni1137   1.855       .  S
Ni86        O596   1.892       .  S
Ni86        O607   1.898       .  S
C89          C90   1.405       .  A
C89          C94   1.409       .  A
C89         C254   1.500   1_554  S
C90          C91   1.403       .  A
C90          H95   1.082       .  S
C91          C92   1.419       .  A
C91         C572   1.489       .  S
C92          C93   1.419       .  A
C92          H96   1.083       .  S
C93          C94   1.407       .  A
C93         C128   1.498       .  S
C94          H97   1.082       .  S
C98          C99   1.390       .  A
C98         C103   1.388       .  A
C98         C221   1.484       .  S
C99         C100   1.415       .  A
C99         H104   1.084       .  S
C100        C101   1.399       .  A
C101        C102   1.404       .  A
C101        H105   1.084       .  S
C102        C103   1.403       .  A
C102        C161   1.444       .  S
C103        H106   1.082       .  S
C107        C108   1.392       .  A
C107        C112   1.386       .  A
C107        C210   1.485   1_554  S
C108        C109   1.417       .  A
C108        H113   1.082       .  S
C109        C110   1.425       .  A
C109        C146   1.508       .  S
C110        C111   1.429       .  A
C110        H114   1.083       .  S
C111        C112   1.395       .  A
C112        H115   1.085       .  S
C116        C117   1.399       .  A
C116        C121   1.398       .  A
C116        C188   1.495       .  S
C117        C118   1.406       .  A
C117        H122   1.083       .  S
C118        C119   1.405       .  A
C118        C154   1.474       .  S
C119        C120   1.408       .  A
C119        H123   1.083       .  S
C120        C121   1.409       .  A
C121        H124   1.083       .  S
O125       Ni131   1.897       .  S
O125        C146   1.263       .  A
O126       Ni149   1.897       .  S
O126        C135   1.272       .  A
O127       Ni131   1.893       .  S
O127       Ni149   1.880       .  S
O127       Ni143   1.941       .  S
O127        H150   0.966       .  S
C128        O145   1.286       .  A
C128        O137   1.280       .  A
O129       Ni148   1.960       .  S
O129        C135   1.280       .  A
O130       Ni148   1.911       .  S
O130        C132   1.272       .  A
Ni131       O398   1.921       .  S
Ni131       O400   1.928       .  S
C132        C164   1.485       .  S
C132        O142   1.286       .  A
O133       Ni149   1.961       .  S
O133        C139   1.294       .  A
O134       Ni395   1.921       .  S
O134        C403   1.278       .  A
O136       Ni395   1.927       .  S
O136        C138   1.264       .  A
O137       Ni148   1.949       .  S
C138        C158   1.485       .  S
C138        O144   1.269       .  A
C139        C267   1.494       .  S
C139        O398   1.278       .  A
H140        O141   0.966       .  S
O141       Ni149   1.923       .  S
O141       Ni143   1.913       .  S
O141       Ni148   1.904       .  S
O142       Ni143   1.971       .  S
Ni143       O147   1.979       .  S
Ni143       O145   1.934       .  S
O144       Ni413   1.945       .  S
C146        O147   1.281       .  A
Ni149       O408   1.945       .  S
O151       Ni157   1.900       .  S
O151        C172   1.262       .  A
O152       Ni175   1.894       .  S
O152        C161   1.263       .  A
O153       Ni157   1.886       .  S
O153       Ni175   1.878       .  S
O153       Ni169   1.925       .  S
O153        H176   0.967       .  S
C154        O171   1.278       .  A
C154        O163   1.283       .  A
O155       Ni174   1.908       .  S
O155        C161   1.268       .  A
O156       Ni174   1.911       .  S
O156        C158   1.270       .  A
Ni157       O160   1.923       .  S
Ni157       O162   1.910       .  S
C158        O168   1.282       .  A
O159       Ni175   1.921       .  S
O159        C165   1.281       .  A
O160        C165   1.280       .  A
O162        C164   1.264       .  A
O163       Ni174   1.943       .  S
C164        O170   1.272       .  A
H166        O167   0.966       .  S
O167       Ni175   1.939       .  S
O167       Ni169   1.887       .  S
O167       Ni174   1.891       .  S
O168       Ni169   1.959       .  S
Ni169       O173   1.931       .  S
Ni169       O171   1.906       .  S
O170       Ni175   1.957       .  S
C172        O173   1.272       .  A
C177        C178   1.411       .  A
C177        C182   1.416       .  A
C178        C707   1.391       .  A
C178        H191   1.079       .  S
C179        C180   1.395   1_565  A
C179        C706   1.391       .  A
C179        H192   1.084       .  S
C180        C181   1.400       .  A
C180        C183   1.437       .  S
C181        C710   1.404       .  A
C181        H193   1.083       .  S
C182        C709   1.404       .  A
C182        H194   1.081       .  S
C183        C184   1.204       .  T
C184        C185   1.437       .  S
C185        C186   1.396       .  A
C185        C190   1.401       .  A
C186        C187   1.398       .  A
C186        H195   1.083       .  S
C187        C188   1.412       .  A
C187        H196   1.082       .  S
C188        C189   1.408       .  A
C189        C190   1.396       .  A
C189        H197   1.082       .  S
C190        H198   1.084       .  S
C199        C204   1.411       .  A
C199        C728   1.411       .  A
C200        C201   1.392       .  A
C200        C727   1.411   1_545  A
C200        H213   1.081       .  S
C201        C202   1.396   1_545  A
C201        H214   1.084       .  S
C202        C731   1.397       .  A
C202        C205   1.433   1_565  S
C203        C204   1.399       .  A
C203        C730   1.397       .  A
C203        H215   1.080       .  S
C204        H216   1.082       .  S
C205        C206   1.202       .  T
C206        C207   1.434       .  S
C207        C208   1.398       .  A
C207        C212   1.399       .  A
C208        C209   1.398       .  A
C208        H217   1.084       .  S
C209        C210   1.409       .  A
C209        H218   1.082       .  S
C210        C211   1.406       .  A
C211        C212   1.392       .  A
C211        H219   1.083   1_556  S
C212        H220   1.084       .  S
C221        C222   1.405       .  A
C221        C226   1.410       .  A
C222        C223   1.396       .  A
C222        H235   1.083       .  S
C223        C224   1.400       .  A
C223        H236   1.084       .  S
C224        C225   1.398       .  A
C224        C227   1.435       .  S
C225        C226   1.397       .  A
C225        H237   1.084       .  S
C226        H238   1.083       .  S
C227        C228   1.202       .  T
C228        C229   1.433       .  S
C229        C230   1.396       .  A
C229       C1290   1.399   1_455  A
C230        C231   1.396   1_455  A
C230        H239   1.082       .  S
C231       C1288   1.406       .  A
C231        H240   1.082   1_655  S
C232        C233   1.408       .  A
C232       C1287   1.406       .  A
C233        C234   1.395       .  A
C233        H241   1.083       .  S
C234       C1285   1.399       .  A
C234        H242   1.084       .  S
C243        C244   1.406       .  A
C243        C512   1.412       .  A
C244        C245   1.391       .  A
C244        H257   1.082   1_556  S
C245       C1302   1.399       .  A
C245        H258   1.084       .  S
C246       C1301   1.399       .  A
C246        C511   1.399       .  A
C246        C249   1.436       .  S
C247        C510   1.399       .  A
C247       C1304   1.402       .  A
C247        H259   1.083       .  S
C248        C507   1.412       .  A
C248       C1303   1.402       .  A
C248       H1316   1.080       .  S
C249        C250   1.203       .  T
C250        C251   1.433       .  S
C251        C252   1.397       .  A
C251        C256   1.399       .  A
C252        C253   1.399       .  A
C252        H525   1.084       .  S
C253        C254   1.413       .  A
C253        H262   1.082       .  S
C254        C255   1.410       .  A
C255        C256   1.395       .  A
C255        H263   1.080       .  S
C256        H264   1.084       .  S
H260       C1304   1.080       .  S
H261        C516   1.084       .  S
C265        C266   1.402       .  A
C265        C270   1.403       .  A
C265        C507   1.491       .  S
C266        H271   1.083       .  S
C267        C268   1.421       .  A
C268        C269   1.418       .  A
C268        H272   1.083       .  S
C269       C1106   1.487       .  S
C270        H273   1.084       .  S
C274        C275   1.395       .  A
C274        C279   1.392       .  A
C274        C496   1.485       .  S
C275        C276   1.415       .  A
C275        H280   1.083       .  S
C276        C277   1.405       .  A
C276        C436   1.472       .  S
C277        C278   1.400       .  A
C277        H281   1.083       .  S
C278        C279   1.393       .  A
C278        C348   1.445       .  S
C279        H282   1.085       .  S
C283        C284   1.400       .  A
C283        C288   1.402       .  A
C283        C463   1.498       .  S
C284        C285   1.405       .  A
C284        H289   1.083       .  S
C285        C286   1.417       .  A
C285        C322   1.486       .  S
C286        C287   1.418       .  A
C286        H290   1.083       .  S
C287        C288   1.405       .  A
C287        C399   1.485       .  S
C288        H291   1.083       .  S
C292        C293   1.405       .  A
C292        C297   1.408       .  A
C292        C441   1.504       .  S
C293        C294   1.400       .  A
C293        H298   1.081       .  S
C294        C295   1.399       .  A
C294        C429   1.462       .  S
C295        C296   1.403       .  A
C295        H299   1.084       .  S
C296        C297   1.411       .  A
C296        C858   1.471       .  S
C297        H300   1.081       .  S
O301      Ni1099   1.909       .  S
O301        C850   1.268       .  A
O302       Ni325   1.912       .  S
O302        C311   1.264       .  A
O303       Ni325   1.889       .  S
O303       Ni319   1.886       .  S
O303        H326   0.967       .  S
C304        C334   1.427       .  S
C304        O321   1.261       .  A
C304        O313   1.277       .  A
O305       Ni324   1.955       .  S
O305        C311   1.278       .  A
O306       Ni324   1.926       .  S
O306        C308   1.272   1_545  A
Ni307      O1093   1.909       .  S
Ni307       O310   1.902   1_654  S
Ni307      O1104   1.917       .  S
C308        C883   1.488       .  S
C308        O318   1.278       .  A
O309        C315   1.276   1_554  A
O310        C315   1.278       .  A
C311        C375   1.477       .  S
O312      Ni1099   1.916       .  S
O312       C1370   1.266       .  A
O313       Ni324   1.923       .  S
C314       C1061   1.487       .  S
C314       O1368   1.266       .  A
C314        O320   1.274   1_655  A
C315        C340   1.423       .  S
H316        O317   0.960       .  S
O317       Ni325   1.902       .  S
O317       Ni319   1.937       .  S
O317       Ni324   1.926       .  S
O318       Ni319   1.942   1_565  S
Ni319       O851   1.946   1_445  S
Ni319       O321   1.871       .  S
O320       Ni325   1.936       .  S
C322        O829   1.268       .  A
C322       O1379   1.272       .  A
O323       Ni847   1.946   1_655  S
O323       C1378   1.272       .  A
O327       Ni333   1.947       .  S
O327       C1404   1.276   1_455  A
O328       Ni351   1.955       .  S
O328        C865   1.268   1_545  A
O329       Ni333   1.896       .  S
O329       Ni351   1.911       .  S
O329       Ni345   1.922       .  S
O329        H352   0.966       .  S
C330        C824   1.471       .  S
C330        O347   1.281   1_565  A
C330       O1923   1.278       .  A
O331       Ni350   1.875       .  S
O331        C337   1.247       .  A
O332       Ni878   1.892       .  S
O332        C334   1.255   1_565  A
Ni333       O336   1.938       .  S
Ni333       O338   1.873       .  S
C334        O344   1.252       .  A
O335       Ni351   1.886       .  S
O335        C341   1.270       .  A
O336        C341   1.275       .  A
C337        C364   1.471       .  S
C337        O856   1.268       .  A
O338        C340   1.265       .  A
O339       Ni350   1.909       .  S
O339       C1914   1.278   1_455  A
C340        O346   1.276       .  A
C341        C384   1.469       .  S
H342        O343   0.966       .  S
O343       Ni351   1.929       .  S
O343       Ni345   1.870       .  S
O343       Ni878   1.898   1_545  S
O344       Ni345   1.881       .  S
Ni345      O1405   1.855   1_455  S
Ni345      O1403   1.926   1_455  S
O346       Ni351   1.928       .  S
O347      Ni1401   1.926       .  S
C348       O1383   1.276       .  A
C348        O349   1.258       .  A
O349      Ni1401   1.855       .  S
Ni350       O860   1.892       .  S
Ni350       O871   1.898       .  S
C353        C354   1.404       .  A
C353        C358   1.409       .  A
C353        C518   1.500       .  S
C354        C355   1.403       .  A
C354        H359   1.082       .  S
C355        C356   1.419       .  A
C355        C836   1.488       .  S
C356        C357   1.419       .  A
C356        H360   1.083       .  S
C357        C358   1.407       .  A
C357        C392   1.498       .  S
C358        H361   1.082       .  S
C362        C363   1.390       .  A
C362        C367   1.388       .  A
C362        C485   1.485       .  S
C363        C364   1.415       .  A
C363        H368   1.084       .  S
C364        C365   1.399       .  A
C365        C366   1.404       .  A
C365        H369   1.084       .  S
C366        C367   1.403       .  A
C366        C425   1.445       .  S
C367        H370   1.082       .  S
C371        C372   1.392       .  A
C371        C376   1.387       .  A
C371        C474   1.486       .  S
C372        C373   1.417       .  A
C372        H377   1.082       .  S
C373        C374   1.425       .  A
C373        C410   1.509       .  S
C374        C375   1.429       .  A
C374        H378   1.083       .  S
C375        C376   1.396       .  A
C376        H379   1.085       .  S
C380        C381   1.399       .  A
C380        C385   1.398       .  A
C380        C452   1.495       .  S
C381        C382   1.406       .  A
C381        H386   1.083       .  S
C382        C383   1.405       .  A
C382        C418   1.473       .  S
C383        C384   1.408       .  A
C383        H387   1.083       .  S
C384        C385   1.410       .  A
C385        H388   1.083       .  S
O389       Ni395   1.897       .  S
O389        C410   1.263       .  A
O390       Ni413   1.896       .  S
O390        C399   1.272       .  A
O391       Ni395   1.892       .  S
O391       Ni413   1.880       .  S
O391       Ni407   1.941       .  S
O391        H414   0.966       .  S
C392        O409   1.286       .  A
C392        O401   1.280       .  A
O393       Ni412   1.960       .  S
O393        C399   1.280       .  A
O394       Ni412   1.911       .  S
O394        C396   1.272       .  A
C396        C428   1.485       .  S
C396        O406   1.286       .  A
O397       Ni413   1.960       .  S
O397        C403   1.294       .  A
O400        C402   1.264   1_554  A
O401       Ni412   1.949       .  S
C402        C422   1.485       .  S
C402        O408   1.270   1_556  A
H404        O405   0.966       .  S
O405       Ni413   1.923       .  S
O405       Ni407   1.913       .  S
O405       Ni412   1.904       .  S
O406       Ni407   1.971       .  S
Ni407       O411   1.980       .  S
Ni407       O409   1.935       .  S
C410        O411   1.281       .  A
O415       Ni421   1.899       .  S
O415        C436   1.261       .  A
O416       Ni439   1.894       .  S
O416        C425   1.263       .  A
O417       Ni421   1.886       .  S
O417       Ni439   1.878       .  S
O417       Ni433   1.925       .  S
O417        H440   0.967       .  S
C418        O435   1.278       .  A
C418        O427   1.283       .  A
O419       Ni438   1.908       .  S
O419        C425   1.268       .  A
O420       Ni438   1.911       .  S
O420        C422   1.270       .  A
Ni421       O424   1.924       .  S
Ni421       O426   1.910       .  S
C422        O432   1.282       .  A
O423       Ni439   1.922       .  S
O423        C429   1.281       .  A
O424        C429   1.281       .  A
O426        C428   1.263       .  A
O427       Ni438   1.943       .  S
C428        O434   1.272       .  A
H430        O431   0.966       .  S
O431       Ni439   1.939       .  S
O431       Ni433   1.887       .  S
O431       Ni438   1.891       .  S
O432       Ni433   1.959       .  S
Ni433       O437   1.931       .  S
Ni433       O435   1.905       .  S
O434       Ni439   1.957       .  S
C436        O437   1.272       .  A
C441        C442   1.411       .  A
C441        C446   1.416       .  A
C442        C971   1.391       .  A
C442        H455   1.079       .  S
C443        C970   1.391       .  A
C443        C444   1.395   1_565  A
C443        H456   1.084       .  S
C444        C445   1.400       .  A
C444        C447   1.437       .  S
C445        C974   1.404       .  A
C445        H457   1.084       .  S
C446        C973   1.404       .  A
C446        H458   1.081       .  S
C447        C448   1.205       .  T
C448        C449   1.437       .  S
C449        C450   1.396       .  A
C449        C454   1.401       .  A
C450        C451   1.398       .  A
C450        H459   1.083       .  S
C451        C452   1.412       .  A
C451        H460   1.082       .  S
C452        C453   1.408       .  A
C453        C454   1.396       .  A
C453        H461   1.082       .  S
C454        H462   1.084       .  S
C463        C992   1.411       .  A
C463        C468   1.411       .  A
C464        C991   1.411   1_545  A
C464        C465   1.393       .  A
C464        H477   1.080       .  S
C465        C466   1.396   1_545  A
C465        H478   1.084       .  S
C466        C995   1.396       .  A
C466        C469   1.433   1_565  S
C467        C994   1.396       .  A
C467        C468   1.399       .  A
C467        H479   1.080       .  S
C468        H480   1.082       .  S
C469        C470   1.202       .  T
C470        C471   1.434       .  S
C471        C472   1.398       .  A
C471        C476   1.399       .  A
C472        C473   1.399       .  A
C472        H481   1.084       .  S
C473        C474   1.409       .  A
C473        H482   1.082       .  S
C474        C475   1.406       .  A
C475        C476   1.392       .  A
C475        H483   1.083       .  S
C476        H484   1.084       .  S
C485        C486   1.405       .  A
C485        C490   1.410       .  A
C486        C487   1.396       .  A
C486        H499   1.083       .  S
C487        C488   1.400       .  A
C487        H500   1.084       .  S
C488        C489   1.398       .  A
C488        C491   1.435       .  S
C489        C490   1.397       .  A
C489        H501   1.084       .  S
C490        H502   1.083       .  S
C491        C492   1.203       .  T
C492        C493   1.434       .  S
C493        C494   1.397       .  A
C493       C1554   1.399   1_455  A
C494        C495   1.396   1_455  A
C494        H503   1.083       .  S
C495       C1552   1.407       .  A
C495        H504   1.082   1_655  S
C496       C1551   1.407       .  A
C496        C497   1.408       .  A
C497        C498   1.395       .  A
C497        H505   1.082       .  S
C498       C1549   1.399       .  A
C498        H506   1.084       .  S
C507        C508   1.406       .  A
C508        C509   1.391       .  A
C508        H521   1.082       .  S
C509       C1566   1.399       .  A
C509        H522   1.084       .  S
C510       C1565   1.399       .  A
C510        C513   1.436       .  S
C511       C1568   1.402       .  A
C511        H523   1.083       .  S
C512       C1567   1.402       .  A
C512       H1580   1.080       .  S
C513        C514   1.202       .  T
C514        C515   1.433       .  S
C515        C516   1.397       .  A
C515        C520   1.399       .  A
C516        C517   1.398       .  A
C517        C518   1.413       .  A
C517        H526   1.082       .  S
C518        C519   1.410       .  A
C519        C520   1.395       .  A
C519        H527   1.080       .  S
C520        H528   1.084       .  S
H524       C1568   1.080       .  S
C529        C530   1.402       .  A
C529        C534   1.403       .  A
C529        C771   1.491   1_554  S
C530        C795   1.400       .  A
C530        H535   1.083       .  S
C531        C794   1.400       .  A
C531        C532   1.421       .  A
C531        C931   1.494       .  S
C532        C533   1.418       .  A
C532        H536   1.083       .  S
C533        C798   1.406       .  A
C533       C1898   1.487       .  S
C534        C797   1.406       .  A
C534        H537   1.084       .  S
C538        C539   1.394       .  A
C538        C543   1.392       .  A
C538        C760   1.484       .  S
C539        C540   1.414       .  A
C539        H544   1.083       .  S
C540        C541   1.406       .  A
C540        C700   1.472       .  S
C541        C542   1.401       .  A
C541        H545   1.083       .  S
C542        C543   1.393       .  A
C542        C612   1.446       .  S
C543        H546   1.085       .  S
C547        C548   1.399       .  A
C547        C552   1.402       .  A
C547        C727   1.497   1_554  S
C548        C549   1.404       .  A
C548        H553   1.083       .  S
C549        C550   1.418       .  A
C549        C586   1.487   1_565  S
C550        C551   1.418       .  A
C550        H554   1.083       .  S
C551        C552   1.405       .  A
C551        C663   1.486       .  S
C552        H555   1.083       .  S
C556        C557   1.405       .  A
C556        C561   1.408       .  A
C556        C705   1.504       .  S
C557        C558   1.399       .  A
C557        H562   1.081       .  S
C558        C559   1.399       .  A
C558        C693   1.461       .  S
C559        C560   1.403       .  A
C559        H563   1.084       .  S
C560        C561   1.411       .  A
C561        H564   1.081   1_565  S
O565      Ni1891   1.909       .  S
O566       Ni589   1.912       .  S
O566        C575   1.264       .  A
O567       Ni835   1.888   1_455  S
O567       Ni589   1.889       .  S
O567       Ni583   1.887       .  S
O567        H590   0.967       .  S
C568        C598   1.427       .  S
C568        O585   1.261       .  A
C568        O577   1.277       .  A
O569       Ni588   1.955       .  S
O569        C575   1.278       .  A
O570       Ni588   1.926       .  S
O570        C572   1.272       .  A
Ni571      O1885   1.909       .  S
Ni571       O574   1.902   1_655  S
Ni571      O1896   1.916       .  S
Ni571       O831   1.888   1_655  S
C572        O582   1.278       .  A
O573       Ni853   1.902       .  S
O573        C579   1.276       .  A
O574        C579   1.278       .  A
C575        C639   1.477       .  S
O576      Ni1891   1.917       .  S
O576       C1634   1.267       .  A
O577       Ni588   1.924       .  S
C578       C1853   1.487       .  S
C578       O1632   1.267       .  A
C578        O584   1.274   1_655  A
C579        C604   1.423       .  S
H580        O581   0.959       .  S
O581       Ni589   1.903       .  S
O581       Ni583   1.936       .  S
O581       Ni588   1.926       .  S
O582       Ni583   1.943       .  S
Ni583       O585   1.871       .  S
O584       Ni589   1.936       .  S
C586       O1643   1.272   1_545  A
O587       C1642   1.272   1_565  A
Ni589       O837   1.903       .  S
O591       Ni597   1.947       .  S
O591       C1668   1.276   1_455  A
O592       Ni615   1.954       .  S
O593       Ni597   1.896       .  S
O593       Ni615   1.911       .  S
O593       Ni609   1.923       .  S
O593        H616   0.966       .  S
C594        O611   1.281       .  A
C594       O1131   1.278       .  A
O595       Ni614   1.875       .  S
O595        C601   1.247       .  A
O596        C598   1.255       .  A
Ni597       O600   1.938       .  S
Ni597       O602   1.874       .  S
C598        O608   1.252       .  A
O599       Ni615   1.887       .  S
O599        C605   1.270       .  A
O600        C605   1.274       .  A
C601        C628   1.470       .  S
O602        C604   1.265       .  A
O603       Ni614   1.909       .  S
O603       C1122   1.278   1_455  A
C604        O610   1.276       .  A
C605        C648   1.470       .  S
H606        O607   0.966       .  S
O607       Ni615   1.929       .  S
O607       Ni609   1.870       .  S
O608       Ni609   1.881       .  S
Ni609      O1669   1.855   1_455  S
Ni609      O1667   1.927   1_455  S
O610       Ni615   1.928       .  S
O611      Ni1665   1.927       .  S
C612       O1647   1.276       .  A
C612        O613   1.259       .  A
O613      Ni1665   1.855       .  S
C617        C618   1.405       .  A
C617        C622   1.409       .  A
C617        C782   1.500   1_554  S
C618        C619   1.403       .  A
C618        H623   1.082       .  S
C619        C620   1.419       .  A
C620        C621   1.419       .  A
C620        H624   1.083       .  S
C621        C622   1.407       .  A
C621        C656   1.498       .  S
C622        H625   1.082       .  S
C626        C627   1.390       .  A
C626        C631   1.388       .  A
C626        C749   1.484       .  S
C627        C628   1.415       .  A
C627        H632   1.084       .  S
C628        C629   1.399       .  A
C629        C630   1.404       .  A
C629        H633   1.084       .  S
C630        C631   1.403       .  A
C630        C689   1.444       .  S
C631        H634   1.082       .  S
C635        C636   1.392       .  A
C635        C640   1.386       .  A
C635        C738   1.485   1_554  S
C636        C637   1.417       .  A
C636        H641   1.082       .  S
C637        C638   1.425       .  A
C637        C674   1.508       .  S
C638        C639   1.429       .  A
C638        H642   1.083       .  S
C639        C640   1.395       .  A
C640        H643   1.085       .  S
C644        C645   1.399       .  A
C644        C649   1.398       .  A
C644        C716   1.495       .  S
C645        C646   1.406       .  A
C645        H650   1.083       .  S
C646        C647   1.405       .  A
C646        C682   1.474       .  S
C647        C648   1.408       .  A
C647        H651   1.083       .  S
C648        C649   1.409       .  A
C649        H652   1.083       .  S
O653       Ni659   1.897       .  S
O653        C674   1.263       .  A
O654       Ni677   1.897       .  S
O654        C663   1.272       .  A
O655       Ni659   1.893       .  S
O655       Ni677   1.880       .  S
O655       Ni671   1.941       .  S
O655        H678   0.966       .  S
C656        O673   1.286       .  A
C656        O665   1.280       .  A
O657       Ni676   1.960       .  S
O657        C663   1.280       .  A
O658       Ni676   1.911       .  S
O658        C660   1.272       .  A
Ni659       O926   1.921       .  S
Ni659       O928   1.928       .  S
C660        C692   1.485       .  S
C660        O670   1.286       .  A
O661       Ni677   1.961       .  S
O661        C667   1.294       .  A
O662       Ni923   1.921       .  S
O662        C931   1.278       .  A
O664       Ni923   1.927       .  S
O664        C666   1.264       .  A
O665       Ni676   1.949       .  S
C666        C686   1.485       .  S
C666        O672   1.269       .  A
C667        C795   1.494       .  S
C667        O926   1.278       .  A
H668        O669   0.966       .  S
O669       Ni677   1.923       .  S
O669       Ni671   1.913       .  S
O669       Ni676   1.904       .  S
O670       Ni671   1.971       .  S
Ni671       O675   1.979       .  S
Ni671       O673   1.934       .  S
O672       Ni941   1.945       .  S
C674        O675   1.281       .  A
Ni677       O936   1.945       .  S
O679       Ni685   1.900       .  S
O679        C700   1.262       .  A
O680       Ni703   1.894       .  S
O680        C689   1.263       .  A
O681       Ni685   1.886       .  S
O681       Ni703   1.878       .  S
O681       Ni697   1.925       .  S
O681        H704   0.967       .  S
C682        O699   1.278       .  A
C682        O691   1.283       .  A
O683       Ni702   1.908       .  S
O683        C689   1.268       .  A
O684       Ni702   1.911       .  S
O684        C686   1.270       .  A
Ni685       O688   1.923       .  S
Ni685       O690   1.910       .  S
C686        O696   1.282       .  A
O687       Ni703   1.921       .  S
O687        C693   1.281       .  A
O688        C693   1.280       .  A
O690        C692   1.264       .  A
O691       Ni702   1.943       .  S
C692        O698   1.272       .  A
H694        O695   0.966       .  S
O695       Ni703   1.939       .  S
O695       Ni697   1.887       .  S
O695       Ni702   1.891       .  S
O696       Ni697   1.959       .  S
Ni697       O701   1.931       .  S
Ni697       O699   1.906       .  S
O698       Ni703   1.957       .  S
C700        O701   1.272       .  A
C705        C706   1.411       .  A
C705        C710   1.416   1_565  A
C706        H719   1.079       .  S
C707        C708   1.395       .  A
C707        H720   1.084       .  S
C708        C709   1.400       .  A
C708        C711   1.437       .  S
C709        H721   1.083       .  S
C710        H722   1.081       .  S
C711        C712   1.204       .  T
C712        C713   1.437       .  S
C713        C714   1.396       .  A
C713        C718   1.401       .  A
C714        C715   1.398       .  A
C714        H723   1.083       .  S
C715        C716   1.412       .  A
C715        H724   1.082       .  S
C716        C717   1.408       .  A
C717        C718   1.396       .  A
C717        H725   1.082       .  S
C718        H726   1.084       .  S
C727        C732   1.411       .  A
C728        C729   1.392       .  A
C728        H741   1.081       .  S
C729        C730   1.396       .  A
C729        H742   1.084       .  S
C730        C733   1.433       .  S
C731        C732   1.399       .  A
C731        H743   1.080       .  S
C732        H744   1.082       .  S
C733        C734   1.202       .  T
C734        C735   1.434       .  S
C735        C736   1.398       .  A
C735        C740   1.399       .  A
C736        C737   1.398       .  A
C736        H745   1.084       .  S
C737        C738   1.409       .  A
C737        H746   1.082       .  S
C738        C739   1.406       .  A
C739        C740   1.392       .  A
C739        H747   1.083   1_556  S
C740        H748   1.084       .  S
C749        C750   1.405       .  A
C749        C754   1.410       .  A
C750        C751   1.396       .  A
C750        H763   1.083       .  S
C751        C752   1.400       .  A
C751        H764   1.084       .  S
C752        C753   1.398       .  A
C752        C755   1.435       .  S
C753        C754   1.397       .  A
C753        H765   1.084       .  S
C754        H766   1.083       .  S
C755        C756   1.202       .  T
C756        C757   1.433       .  S
C757        C758   1.396       .  A
C757       C1818   1.399   1_455  A
C758        C759   1.396   1_455  A
C758        H767   1.082       .  S
C759       C1816   1.406       .  A
C759        H768   1.082   1_655  S
C760       C1815   1.406       .  A
C760        C761   1.408       .  A
C761        C762   1.395       .  A
C761        H769   1.083       .  S
C762       C1813   1.399       .  A
C762        H770   1.084       .  S
C771        C772   1.406       .  A
C771       C1040   1.412       .  A
C772        C773   1.391       .  A
C772        H785   1.082   1_556  S
C773       C1830   1.399       .  A
C773        H786   1.084       .  S
C774       C1829   1.399       .  A
C774       C1039   1.399       .  A
C774        C777   1.436       .  S
C775       C1038   1.399       .  A
C775       C1832   1.402       .  A
C775        H787   1.083       .  S
C776       C1035   1.412       .  A
C776       C1831   1.402       .  A
C776       H1844   1.080       .  S
C777        C778   1.203       .  T
C778        C779   1.433       .  S
C779        C780   1.397       .  A
C779        C784   1.399       .  A
C780        C781   1.399       .  A
C780       H1053   1.084       .  S
C781        C782   1.413       .  A
C781        H790   1.082       .  S
C782        C783   1.410       .  A
C783        C784   1.395       .  A
C783        H791   1.080       .  S
C784        H792   1.084       .  S
H788       C1832   1.080       .  S
H789       C1044   1.084       .  S
C793        C794   1.402       .  A
C793        C798   1.403       .  A
C793       C1035   1.491       .  S
C794        H799   1.083       .  S
C795        C796   1.421       .  A
C796        C797   1.418       .  A
C796        H800   1.083       .  S
C797       C1634   1.487       .  S
C798        H801   1.084       .  S
C802        C803   1.395       .  A
C802        C807   1.392       .  A
C802       C1024   1.485       .  S
C803        C804   1.415       .  A
C803        H808   1.083       .  S
C804        C805   1.405       .  A
C804        C964   1.472       .  S
C805        C806   1.400       .  A
C805        H809   1.083       .  S
C806        C807   1.393       .  A
C806        C876   1.445       .  S
C807        H810   1.085       .  S
C811        C812   1.400       .  A
C811        C816   1.402       .  A
C811        C991   1.498       .  S
C812        C813   1.405       .  A
C812        H817   1.083       .  S
C813        C814   1.417       .  A
C813        C850   1.486   1_565  S
C814        C815   1.418       .  A
C814        H818   1.083       .  S
C815        C816   1.405       .  A
C815        C927   1.485       .  S
C816        H819   1.083       .  S
C820        C821   1.405       .  A
C820        C825   1.408       .  A
C820        C969   1.504       .  S
C821        C822   1.400       .  A
C821        H826   1.081       .  S
C822        C823   1.399       .  A
C822        C957   1.462       .  S
C823        C824   1.403       .  A
C823        H827   1.084       .  S
C824        C825   1.411       .  A
C825        H828   1.081   1_565  S
O829      Ni1627   1.909       .  S
O830       Ni853   1.912       .  S
O830        C839   1.264       .  A
O831       Ni853   1.889       .  S
O831       Ni847   1.886       .  S
O831        H854   0.967       .  S
C832        C862   1.427       .  S
C832        O849   1.261       .  A
C832        O841   1.277       .  A
O833       Ni852   1.955       .  S
O833        C839   1.278       .  A
O834       Ni852   1.926       .  S
O834        C836   1.272       .  A
Ni835      O1621   1.909       .  S
Ni835       O838   1.902   1_654  S
Ni835      O1632   1.917       .  S
C836        O846   1.278       .  A
O837        C843   1.276   1_554  A
O838        C843   1.278       .  A
C839        C903   1.477       .  S
O840      Ni1627   1.916       .  S
O840       C1898   1.266       .  A
O841       Ni852   1.923       .  S
C842       C1589   1.487       .  S
C842       O1896   1.266       .  A
C842        O848   1.274   1_655  A
C843        C868   1.423       .  S
H844        O845   0.960       .  S
O845       Ni853   1.902       .  S
O845       Ni847   1.937       .  S
O845       Ni852   1.926       .  S
O846       Ni847   1.942       .  S
Ni847       O849   1.871       .  S
O848       Ni853   1.936       .  S
C850       O1907   1.272   1_545  A
O851       C1906   1.272   1_565  A
O855       Ni861   1.947       .  S
O855       C1932   1.276   1_455  A
O856       Ni879   1.955       .  S
O857       Ni861   1.896       .  S
O857       Ni879   1.911       .  S
O857       Ni873   1.922       .  S
O857        H880   0.966       .  S
C858        O875   1.281       .  A
C858       O1395   1.278       .  A
O859       Ni878   1.875       .  S
O859        C865   1.247       .  A
O860        C862   1.255       .  A
Ni861       O864   1.938       .  S
Ni861       O866   1.873       .  S
C862        O872   1.252       .  A
O863       Ni879   1.886       .  S
O863        C869   1.270       .  A
O864        C869   1.275       .  A
C865        C892   1.471       .  S
O866        C868   1.265       .  A
O867       Ni878   1.909       .  S
O867       C1386   1.278   1_455  A
C868        O874   1.276       .  A
C869        C912   1.469       .  S
H870        O871   0.966       .  S
O871       Ni879   1.929       .  S
O871       Ni873   1.870       .  S
O872       Ni873   1.881       .  S
Ni873      O1933   1.855   1_455  S
Ni873      O1931   1.926   1_455  S
O874       Ni879   1.928       .  S
O875      Ni1929   1.926       .  S
C876       O1911   1.276       .  A
C876        O877   1.258       .  A
O877      Ni1929   1.855       .  S
C881        C882   1.404       .  A
C881        C886   1.409       .  A
C881       C1046   1.500       .  S
C882        C883   1.403       .  A
C882        H887   1.082       .  S
C883        C884   1.419       .  A
C884        C885   1.419       .  A
C884        H888   1.083       .  S
C885        C886   1.407       .  A
C885        C920   1.498       .  S
C886        H889   1.082       .  S
C890        C891   1.390       .  A
C890        C895   1.388       .  A
C890       C1013   1.485       .  S
C891        C892   1.415       .  A
C891        H896   1.084       .  S
C892        C893   1.399       .  A
C893        C894   1.404       .  A
C893        H897   1.084       .  S
C894        C895   1.403       .  A
C894        C953   1.445       .  S
C895        H898   1.082       .  S
C899        C900   1.392       .  A
C899        C904   1.387       .  A
C899       C1002   1.486       .  S
C900        C901   1.417       .  A
C900        H905   1.082       .  S
C901        C902   1.425       .  A
C901        C938   1.509       .  S
C902        C903   1.429       .  A
C902        H906   1.083       .  S
C903        C904   1.396       .  A
C904        H907   1.085       .  S
C908        C909   1.399       .  A
C908        C913   1.398       .  A
C908        C980   1.495       .  S
C909        C910   1.406       .  A
C909        H914   1.083       .  S
C910        C911   1.405       .  A
C910        C946   1.473       .  S
C911        C912   1.408       .  A
C911        H915   1.083       .  S
C912        C913   1.410       .  A
C913        H916   1.083       .  S
O917       Ni923   1.897       .  S
O917        C938   1.263       .  A
O918       Ni941   1.896       .  S
O918        C927   1.272       .  A
O919       Ni923   1.892       .  S
O919       Ni941   1.880       .  S
O919       Ni935   1.941       .  S
O919        H942   0.966       .  S
C920        O937   1.286       .  A
C920        O929   1.280       .  A
O921       Ni940   1.960       .  S
O921        C927   1.280       .  A
O922       Ni940   1.911       .  S
O922        C924   1.272       .  A
C924        C956   1.485       .  S
C924        O934   1.286       .  A
O925       Ni941   1.960       .  S
O925        C931   1.294       .  A
O928        C930   1.264   1_554  A
O929       Ni940   1.949       .  S
C930        C950   1.485       .  S
C930        O936   1.270   1_556  A
H932        O933   0.966       .  S
O933       Ni941   1.923       .  S
O933       Ni935   1.913       .  S
O933       Ni940   1.904       .  S
O934       Ni935   1.971       .  S
Ni935       O939   1.980       .  S
Ni935       O937   1.935       .  S
C938        O939   1.281       .  A
O943       Ni949   1.899       .  S
O943        C964   1.261       .  A
O944       Ni967   1.894       .  S
O944        C953   1.263       .  A
O945       Ni949   1.886       .  S
O945       Ni967   1.878       .  S
O945       Ni961   1.925       .  S
O945        H968   0.967       .  S
C946        O963   1.278       .  A
C946        O955   1.283       .  A
O947       Ni966   1.908       .  S
O947        C953   1.268       .  A
O948       Ni966   1.911       .  S
O948        C950   1.270       .  A
Ni949       O952   1.924       .  S
Ni949       O954   1.910       .  S
C950        O960   1.282       .  A
O951       Ni967   1.922       .  S
O951        C957   1.281       .  A
O952        C957   1.281       .  A
O954        C956   1.263       .  A
O955       Ni966   1.943       .  S
C956        O962   1.272       .  A
H958        O959   0.966       .  S
O959       Ni967   1.939       .  S
O959       Ni961   1.887       .  S
O959       Ni966   1.891       .  S
O960       Ni961   1.959       .  S
Ni961       O965   1.931       .  S
Ni961       O963   1.905       .  S
O962       Ni967   1.957       .  S
C964        O965   1.272       .  A
C969        C970   1.411       .  A
C969        C974   1.416   1_565  A
C970        H983   1.079       .  S
C971        C972   1.395       .  A
C971        H984   1.084       .  S
C972        C973   1.400       .  A
C972        C975   1.437       .  S
C973        H985   1.084       .  S
C974        H986   1.081       .  S
C975        C976   1.205       .  T
C976        C977   1.437       .  S
C977        C978   1.396       .  A
C977        C982   1.401       .  A
C978        C979   1.398       .  A
C978        H987   1.083       .  S
C979        C980   1.412       .  A
C979        H988   1.082       .  S
C980        C981   1.408       .  A
C981        C982   1.396       .  A
C981        H989   1.082       .  S
C982        H990   1.084       .  S
C991        C996   1.411       .  A
C992        C993   1.393       .  A
C992       H1005   1.080       .  S
C993        C994   1.396       .  A
C993       H1006   1.084       .  S
C994        C997   1.433       .  S
C995        C996   1.399       .  A
C995       H1007   1.080       .  S
C996       H1008   1.082       .  S
C997        C998   1.202       .  T
C998        C999   1.434       .  S
C999       C1000   1.398       .  A
C999       C1004   1.399       .  A
C1000      C1001   1.399       .  A
C1000      H1009   1.084       .  S
C1001      C1002   1.409       .  A
C1001      H1010   1.082       .  S
C1002      C1003   1.406       .  A
C1003      C1004   1.392       .  A
C1003      H1011   1.083       .  S
C1004      H1012   1.084       .  S
C1013      C1014   1.405       .  A
C1013      C1018   1.410       .  A
C1014      C1015   1.396       .  A
C1014      H1027   1.083       .  S
C1015      C1016   1.400       .  A
C1015      H1028   1.084       .  S
C1016      C1017   1.398       .  A
C1016      C1019   1.435       .  S
C1017      C1018   1.397       .  A
C1017      H1029   1.084       .  S
C1018      H1030   1.083       .  S
C1019      C1020   1.203       .  T
C1020      C1021   1.434       .  S
C1021      C1022   1.397       .  A
C1021      C2082   1.399   1_455  A
C1022      C1023   1.396   1_455  A
C1022      H1031   1.083       .  S
C1023      C2080   1.407       .  A
C1023      H1032   1.082   1_655  S
C1024      C2079   1.407       .  A
C1024      C1025   1.408       .  A
C1025      C1026   1.395       .  A
C1025      H1033   1.082       .  S
C1026      C2077   1.399       .  A
C1026      H1034   1.084       .  S
C1035      C1036   1.406       .  A
C1036      C1037   1.391       .  A
C1036      H1049   1.082       .  S
C1037      C2094   1.399       .  A
C1037      H1050   1.084       .  S
C1038      C2093   1.399       .  A
C1038      C1041   1.436       .  S
C1039      C2096   1.402       .  A
C1039      H1051   1.083       .  S
C1040      C2095   1.402       .  A
C1040      H2108   1.080       .  S
C1041      C1042   1.202       .  T
C1042      C1043   1.433       .  S
C1043      C1044   1.397       .  A
C1043      C1048   1.399       .  A
C1044      C1045   1.398       .  A
C1045      C1046   1.413       .  A
C1045      H1054   1.082       .  S
C1046      C1047   1.410       .  A
C1047      C1048   1.395       .  A
C1047      H1055   1.080       .  S
C1048      H1056   1.084       .  S
H1052      C2096   1.080       .  S
C1057      C1058   1.402       .  A
C1057      C1062   1.403   1_655  A
C1057      C1299   1.491   1_654  S
C1058      C1323   1.400       .  A
C1058      H1063   1.083       .  S
C1059      C1322   1.400       .  A
C1059      C1060   1.421       .  A
C1059      C1459   1.494       .  S
C1060      C1061   1.418       .  A
C1060      H1064   1.083       .  S
C1061      C1326   1.406   1_655  A
C1062      C1325   1.406   1_455  A
C1062      H1065   1.084       .  S
C1066      C1067   1.394       .  A
C1066      C1071   1.392       .  A
C1066      C1288   1.484       .  S
C1067      C1068   1.414       .  A
C1067      H1072   1.083       .  S
C1068      C1069   1.406       .  A
C1068      C1228   1.472       .  S
C1069      C1070   1.401       .  A
C1069      H1073   1.083       .  S
C1070      C1071   1.393       .  A
C1070      C1140   1.446       .  S
C1071      H1074   1.085       .  S
C1075      C1076   1.399       .  A
C1075      C1080   1.402       .  A
C1075      C1255   1.497   1_554  S
C1076      C1077   1.404       .  A
C1076      H1081   1.083       .  S
C1077      C1078   1.418       .  A
C1077      C1114   1.487       .  S
C1078      C1079   1.418       .  A
C1078      H1082   1.083       .  S
C1079      C1080   1.405       .  A
C1079      C1191   1.486       .  S
C1080      H1083   1.083       .  S
C1084      C1085   1.405       .  A
C1084      C1089   1.408       .  A
C1084      C1233   1.504       .  S
C1085      C1086   1.399       .  A
C1085      H1090   1.081       .  S
C1086      C1087   1.399       .  A
C1086      C1221   1.461       .  S
C1087      C1088   1.403       .  A
C1087      H1091   1.084       .  S
C1088      C1089   1.411       .  A
C1088      C1650   1.471       .  S
C1089      H1092   1.081       .  S
O1093      C1642   1.268       .  A
O1094     Ni1117   1.912       .  S
O1094      C1103   1.264       .  A
O1095     Ni1363   1.888       .  S
O1095     Ni1117   1.889       .  S
O1095     Ni1111   1.887       .  S
O1095      H1118   0.967       .  S
C1096      C1126   1.427       .  S
C1096      O1113   1.261       .  A
C1096      O1105   1.277       .  A
O1097     Ni1116   1.955       .  S
O1097      C1103   1.278       .  A
O1098     Ni1116   1.926       .  S
O1098      C1100   1.272   1_545  A
Ni1099     O1102   1.902       .  S
Ni1099     O1359   1.888       .  S
C1100      C1675   1.489       .  S
C1100      O1110   1.278       .  A
O1101     Ni1381   1.902       .  S
O1101      C1107   1.276       .  A
O1102      C1107   1.278       .  A
C1103      C1167   1.477       .  S
O1105     Ni1116   1.924       .  S
C1106      O1112   1.274       .  A
C1107      C1132   1.423       .  S
H1108      O1109   0.959       .  S
O1109     Ni1117   1.903       .  S
O1109     Ni1111   1.936       .  S
O1109     Ni1116   1.926       .  S
O1110     Ni1111   1.943   1_565  S
Ni1111     O1643   1.946   1_545  S
Ni1111     O1113   1.871       .  S
O1112     Ni1117   1.936       .  S
C1114      O1621   1.268       .  A
O1115     Ni1639   1.946       .  S
Ni1117     O1365   1.903       .  S
O1119     Ni1125   1.947       .  S
O1120     Ni1143   1.954       .  S
O1120      C1657   1.268   1_545  A
O1121     Ni1125   1.896       .  S
O1121     Ni1143   1.911       .  S
O1121     Ni1137   1.923       .  S
O1121      H1144   0.966       .  S
C1122      C1616   1.471       .  S
C1122      O1139   1.281   1_565  A
O1123     Ni1142   1.875       .  S
O1123      C1129   1.247       .  A
O1124     Ni1670   1.892       .  S
O1124      C1126   1.255   1_565  A
Ni1125     O1128   1.938       .  S
Ni1125     O1130   1.874       .  S
C1126      O1136   1.252       .  A
O1127     Ni1143   1.887       .  S
O1127      C1133   1.270       .  A
O1128      C1133   1.274       .  A
C1129      C1156   1.470       .  S
C1129      O1648   1.268       .  A
O1130      C1132   1.265       .  A
O1131     Ni1142   1.909       .  S
C1132      O1138   1.276       .  A
C1133      C1176   1.470       .  S
H1134      O1135   0.966       .  S
O1135     Ni1143   1.929       .  S
O1135     Ni1137   1.870       .  S
O1135     Ni1670   1.898   1_545  S
O1136     Ni1137   1.881       .  S
O1138     Ni1143   1.928       .  S
C1140      O1141   1.259       .  A
Ni1142     O1652   1.892       .  S
Ni1142     O1663   1.898       .  S
C1145      C1146   1.405       .  A
C1145      C1150   1.409       .  A
C1145      C1310   1.500   1_554  S
C1146      C1147   1.403       .  A
C1146      H1151   1.082       .  S
C1147      C1148   1.419       .  A
C1147      C1628   1.489       .  S
C1148      C1149   1.419       .  A
C1148      H1152   1.083       .  S
C1149      C1150   1.407       .  A
C1149      C1184   1.498       .  S
C1150      H1153   1.082       .  S
C1154      C1155   1.390       .  A
C1154      C1159   1.388       .  A
C1154      C1277   1.484       .  S
C1155      C1156   1.415       .  A
C1155      H1160   1.084       .  S
C1156      C1157   1.399       .  A
C1157      C1158   1.404       .  A
C1157      H1161   1.084       .  S
C1158      C1159   1.403       .  A
C1158      C1217   1.444       .  S
C1159      H1162   1.082       .  S
C1163      C1164   1.392       .  A
C1163      C1168   1.386       .  A
C1163      C1266   1.485   1_554  S
C1164      C1165   1.417       .  A
C1164      H1169   1.082       .  S
C1165      C1166   1.425       .  A
C1165      C1202   1.508       .  S
C1166      C1167   1.429       .  A
C1166      H1170   1.083       .  S
C1167      C1168   1.395       .  A
C1168      H1171   1.085       .  S
C1172      C1173   1.399       .  A
C1172      C1177   1.398       .  A
C1172      C1244   1.495       .  S
C1173      C1174   1.406       .  A
C1173      H1178   1.083       .  S
C1174      C1175   1.405       .  A
C1174      C1210   1.474       .  S
C1175      C1176   1.408       .  A
C1175      H1179   1.083       .  S
C1176      C1177   1.409       .  A
C1177      H1180   1.083       .  S
O1181     Ni1187   1.897       .  S
O1181      C1202   1.263       .  A
O1182     Ni1205   1.897       .  S
O1182      C1191   1.272       .  A
O1183     Ni1187   1.893       .  S
O1183     Ni1205   1.880       .  S
O1183     Ni1199   1.941       .  S
O1183      H1206   0.966       .  S
C1184      O1201   1.286       .  A
C1184      O1193   1.280       .  A
O1185     Ni1204   1.960       .  S
O1185      C1191   1.280       .  A
O1186     Ni1204   1.911       .  S
O1186      C1188   1.272       .  A
Ni1187     O1454   1.921       .  S
Ni1187     O1456   1.928       .  S
C1188      C1220   1.485       .  S
C1188      O1198   1.286       .  A
O1189     Ni1205   1.961       .  S
O1189      C1195   1.294       .  A
O1190     Ni1451   1.921       .  S
O1190      C1459   1.278       .  A
O1192     Ni1451   1.927       .  S
O1192      C1194   1.264       .  A
O1193     Ni1204   1.949       .  S
C1194      C1214   1.485       .  S
C1194      O1200   1.269       .  A
C1195      C1323   1.494       .  S
C1195      O1454   1.278       .  A
H1196      O1197   0.966       .  S
O1197     Ni1205   1.923       .  S
O1197     Ni1199   1.913       .  S
O1197     Ni1204   1.904       .  S
O1198     Ni1199   1.971       .  S
Ni1199     O1203   1.979       .  S
Ni1199     O1201   1.934       .  S
O1200     Ni1469   1.945       .  S
C1202      O1203   1.281       .  A
Ni1205     O1464   1.945       .  S
O1207     Ni1213   1.900       .  S
O1207      C1228   1.262       .  A
O1208     Ni1231   1.894       .  S
O1208      C1217   1.263       .  A
O1209     Ni1213   1.886       .  S
O1209     Ni1231   1.878       .  S
O1209     Ni1225   1.925       .  S
O1209      H1232   0.967       .  S
C1210      O1227   1.278       .  A
C1210      O1219   1.283       .  A
O1211     Ni1230   1.908       .  S
O1211      C1217   1.268       .  A
O1212     Ni1230   1.911       .  S
O1212      C1214   1.270       .  A
Ni1213     O1216   1.923       .  S
Ni1213     O1218   1.910       .  S
C1214      O1224   1.282       .  A
O1215     Ni1231   1.921       .  S
O1215      C1221   1.281       .  A
O1216      C1221   1.280       .  A
O1218      C1220   1.264       .  A
O1219     Ni1230   1.943       .  S
C1220      O1226   1.272       .  A
H1222      O1223   0.966       .  S
O1223     Ni1231   1.939       .  S
O1223     Ni1225   1.887       .  S
O1223     Ni1230   1.891       .  S
O1224     Ni1225   1.959       .  S
Ni1225     O1229   1.931       .  S
Ni1225     O1227   1.906       .  S
O1226     Ni1231   1.957       .  S
C1228      O1229   1.272       .  A
C1233      C1234   1.411       .  A
C1233      C1238   1.416       .  A
C1234      C1763   1.391       .  A
C1234      H1247   1.079       .  S
C1235      C1762   1.391   1_545  A
C1235      C1236   1.395       .  A
C1235      H1248   1.084   1_545  S
C1236      C1237   1.400       .  A
C1236      C1239   1.437       .  S
C1237      C1766   1.404       .  A
C1237      H1249   1.083       .  S
C1238      C1765   1.404       .  A
C1238      H1250   1.081       .  S
C1239      C1240   1.204       .  T
C1240      C1241   1.437       .  S
C1241      C1242   1.396       .  A
C1241      C1246   1.401       .  A
C1242      C1243   1.398       .  A
C1242      H1251   1.083       .  S
C1243      C1244   1.412       .  A
C1243      H1252   1.082       .  S
C1244      C1245   1.408       .  A
C1245      C1246   1.396       .  A
C1245      H1253   1.082       .  S
C1246      H1254   1.084       .  S
C1255      C1784   1.411       .  A
C1255      C1260   1.411       .  A
C1256      C1783   1.411   1_545  A
C1256      C1257   1.392       .  A
C1256      H1269   1.081       .  S
C1257      C1258   1.396   1_545  A
C1257      H1270   1.084       .  S
C1258      C1787   1.397       .  A
C1258      C1261   1.433   1_565  S
C1259      C1786   1.397       .  A
C1259      C1260   1.399       .  A
C1259      H1271   1.080       .  S
C1260      H1272   1.082       .  S
C1261      C1262   1.202       .  T
C1262      C1263   1.434       .  S
C1263      C1264   1.398       .  A
C1263      C1268   1.399       .  A
C1264      C1265   1.398       .  A
C1264      H1273   1.084       .  S
C1265      C1266   1.409       .  A
C1265      H1274   1.082       .  S
C1266      C1267   1.406       .  A
C1267      C1268   1.392       .  A
C1267      H1275   1.083   1_556  S
C1268      H1276   1.084       .  S
C1277      C1278   1.405       .  A
C1277      C1282   1.410       .  A
C1278      C1279   1.396       .  A
C1278      H1291   1.083       .  S
C1279      C1280   1.400       .  A
C1279      H1292   1.084       .  S
C1280      C1281   1.398       .  A
C1280      C1283   1.435       .  S
C1281      C1282   1.397       .  A
C1281      H1293   1.084       .  S
C1282      H1294   1.083       .  S
C1283      C1284   1.202       .  T
C1284      C1285   1.433       .  S
C1285      C1286   1.396       .  A
C1286      C1287   1.396       .  A
C1286      H1295   1.082       .  S
C1287      H1296   1.082       .  S
C1288      C1289   1.408       .  A
C1289      C1290   1.395       .  A
C1289      H1297   1.083       .  S
C1290      H1298   1.084       .  S
C1299      C1300   1.406       .  A
C1299      C1568   1.412       .  A
C1300      C1301   1.391       .  A
C1300      H1313   1.082   1_456  S
C1301      H1314   1.084       .  S
C1302      C1567   1.399       .  A
C1302      C1305   1.436       .  S
C1303      C1566   1.399       .  A
C1303      H1315   1.083       .  S
C1304      C1563   1.412       .  A
C1305      C1306   1.203       .  T
C1306      C1307   1.433       .  S
C1307      C1308   1.397       .  A
C1307      C1312   1.399       .  A
C1308      C1309   1.399       .  A
C1308      H1581   1.084       .  S
C1309      C1310   1.413       .  A
C1309      H1318   1.082       .  S
C1310      C1311   1.410       .  A
C1311      C1312   1.395       .  A
C1311      H1319   1.080       .  S
C1312      H1320   1.084       .  S
H1317      C1572   1.084       .  S
C1321      C1322   1.402       .  A
C1321      C1326   1.403   1_655  A
C1321      C1563   1.491   1_655  S
C1322      H1327   1.083       .  S
C1323      C1324   1.421       .  A
C1324      C1325   1.418       .  A
C1324      H1328   1.083       .  S
C1326      H1329   1.084       .  S
C1330      C1331   1.395       .  A
C1330      C1335   1.392       .  A
C1330      C1552   1.485       .  S
C1331      C1332   1.415       .  A
C1331      H1336   1.083       .  S
C1332      C1333   1.405       .  A
C1332      C1492   1.472       .  S
C1333      C1334   1.400       .  A
C1333      H1337   1.083       .  S
C1334      C1335   1.393       .  A
C1334      C1404   1.445       .  S
C1335      H1338   1.085       .  S
C1339      C1340   1.400       .  A
C1339      C1344   1.402       .  A
C1339      C1519   1.498       .  S
C1340      C1341   1.405       .  A
C1340      H1345   1.083       .  S
C1341      C1342   1.417       .  A
C1341      C1378   1.486       .  S
C1342      C1343   1.418       .  A
C1342      H1346   1.083       .  S
C1343      C1344   1.405       .  A
C1343      C1455   1.485       .  S
C1344      H1347   1.083       .  S
C1348      C1349   1.405       .  A
C1348      C1353   1.408       .  A
C1348      C1497   1.504       .  S
C1349      C1350   1.400       .  A
C1349      H1354   1.081       .  S
C1350      C1351   1.399       .  A
C1350      C1485   1.462       .  S
C1351      C1352   1.403       .  A
C1351      H1355   1.084       .  S
C1352      C1353   1.411       .  A
C1352      C1914   1.471       .  S
C1353      H1356   1.081       .  S
O1357      C1906   1.268       .  A
O1358     Ni1381   1.912       .  S
O1358      C1367   1.264       .  A
O1359     Ni1381   1.889       .  S
O1359     Ni1375   1.886       .  S
O1359      H1382   0.967       .  S
C1360      C1390   1.427       .  S
C1360      O1377   1.261       .  A
C1360      O1369   1.277       .  A
O1361     Ni1380   1.955       .  S
O1361      C1367   1.278       .  A
O1362     Ni1380   1.926       .  S
O1362      C1364   1.272   1_545  A
Ni1363     O1366   1.902   1_554  S
C1364      C1939   1.488       .  S
C1364      O1374   1.278       .  A
O1365      C1371   1.276   1_554  A
O1366      C1371   1.278       .  A
C1367      C1431   1.477       .  S
O1369     Ni1380   1.923       .  S
C1370      O1376   1.274       .  A
C1371      C1396   1.423       .  S
H1372      O1373   0.960       .  S
O1373     Ni1381   1.902       .  S
O1373     Ni1375   1.937       .  S
O1373     Ni1380   1.926       .  S
O1374     Ni1375   1.942   1_565  S
Ni1375     O1907   1.946   1_545  S
Ni1375     O1377   1.871       .  S
O1376     Ni1381   1.936       .  S
C1378      O1885   1.268       .  A
O1379     Ni1903   1.946       .  S
O1383     Ni1389   1.947       .  S
O1384     Ni1407   1.955       .  S
O1384      C1921   1.268   1_545  A
O1385     Ni1389   1.896       .  S
O1385     Ni1407   1.911       .  S
O1385     Ni1401   1.922       .  S
O1385      H1408   0.966       .  S
C1386      C1880   1.471       .  S
C1386      O1403   1.281   1_565  A
O1387     Ni1406   1.875       .  S
O1387      C1393   1.247       .  A
O1388     Ni1934   1.892       .  S
O1388      C1390   1.255   1_565  A
Ni1389     O1392   1.938       .  S
Ni1389     O1394   1.873       .  S
C1390      O1400   1.252       .  A
O1391     Ni1407   1.886       .  S
O1391      C1397   1.270       .  A
O1392      C1397   1.275       .  A
C1393      C1420   1.471       .  S
C1393      O1912   1.268       .  A
O1394      C1396   1.265       .  A
O1395     Ni1406   1.909       .  S
C1396      O1402   1.276       .  A
C1397      C1440   1.469       .  S
H1398      O1399   0.966       .  S
O1399     Ni1407   1.929       .  S
O1399     Ni1401   1.870       .  S
O1399     Ni1934   1.898   1_545  S
O1400     Ni1401   1.881       .  S
O1402     Ni1407   1.928       .  S
C1404      O1405   1.258       .  A
Ni1406     O1916   1.892       .  S
Ni1406     O1927   1.898       .  S
C1409      C1410   1.404       .  A
C1409      C1414   1.409       .  A
C1409      C1574   1.500       .  S
C1410      C1411   1.403       .  A
C1410      H1415   1.082       .  S
C1411      C1412   1.419       .  A
C1411      C1892   1.488       .  S
C1412      C1413   1.419       .  A
C1412      H1416   1.083       .  S
C1413      C1414   1.407       .  A
C1413      C1448   1.498       .  S
C1414      H1417   1.082       .  S
C1418      C1419   1.390       .  A
C1418      C1423   1.388       .  A
C1418      C1541   1.485       .  S
C1419      C1420   1.415       .  A
C1419      H1424   1.084       .  S
C1420      C1421   1.399       .  A
C1421      C1422   1.404       .  A
C1421      H1425   1.084       .  S
C1422      C1423   1.403       .  A
C1422      C1481   1.445       .  S
C1423      H1426   1.082       .  S
C1427      C1428   1.392       .  A
C1427      C1432   1.387       .  A
C1427      C1530   1.486       .  S
C1428      C1429   1.417       .  A
C1428      H1433   1.082       .  S
C1429      C1430   1.425       .  A
C1429      C1466   1.509       .  S
C1430      C1431   1.429       .  A
C1430      H1434   1.083       .  S
C1431      C1432   1.396       .  A
C1432      H1435   1.085       .  S
C1436      C1437   1.399       .  A
C1436      C1441   1.398       .  A
C1436      C1508   1.495       .  S
C1437      C1438   1.406       .  A
C1437      H1442   1.083       .  S
C1438      C1439   1.405       .  A
C1438      C1474   1.473       .  S
C1439      C1440   1.408       .  A
C1439      H1443   1.083       .  S
C1440      C1441   1.410       .  A
C1441      H1444   1.083       .  S
O1445     Ni1451   1.897       .  S
O1445      C1466   1.263       .  A
O1446     Ni1469   1.896       .  S
O1446      C1455   1.272       .  A
O1447     Ni1451   1.892       .  S
O1447     Ni1469   1.880       .  S
O1447     Ni1463   1.941       .  S
O1447      H1470   0.966       .  S
C1448      O1465   1.286       .  A
C1448      O1457   1.280       .  A
O1449     Ni1468   1.960       .  S
O1449      C1455   1.280       .  A
O1450     Ni1468   1.911       .  S
O1450      C1452   1.272       .  A
C1452      C1484   1.485       .  S
C1452      O1462   1.286       .  A
O1453     Ni1469   1.960       .  S
O1453      C1459   1.294       .  A
O1456      C1458   1.264   1_554  A
O1457     Ni1468   1.949       .  S
C1458      C1478   1.485       .  S
C1458      O1464   1.270   1_556  A
H1460      O1461   0.966       .  S
O1461     Ni1469   1.923       .  S
O1461     Ni1463   1.913       .  S
O1461     Ni1468   1.904       .  S
O1462     Ni1463   1.971       .  S
Ni1463     O1467   1.980       .  S
Ni1463     O1465   1.935       .  S
C1466      O1467   1.281       .  A
O1471     Ni1477   1.899       .  S
O1471      C1492   1.261       .  A
O1472     Ni1495   1.894       .  S
O1472      C1481   1.263       .  A
O1473     Ni1477   1.886       .  S
O1473     Ni1495   1.878       .  S
O1473     Ni1489   1.925       .  S
O1473      H1496   0.967       .  S
C1474      O1491   1.278       .  A
C1474      O1483   1.283       .  A
O1475     Ni1494   1.908       .  S
O1475      C1481   1.268       .  A
O1476     Ni1494   1.911       .  S
O1476      C1478   1.270       .  A
Ni1477     O1480   1.924       .  S
Ni1477     O1482   1.910       .  S
C1478      O1488   1.282       .  A
O1479     Ni1495   1.922       .  S
O1479      C1485   1.281       .  A
O1480      C1485   1.281       .  A
O1482      C1484   1.263       .  A
O1483     Ni1494   1.943       .  S
C1484      O1490   1.272       .  A
H1486      O1487   0.966       .  S
O1487     Ni1495   1.939       .  S
O1487     Ni1489   1.887       .  S
O1487     Ni1494   1.891       .  S
O1488     Ni1489   1.959       .  S
Ni1489     O1493   1.931       .  S
Ni1489     O1491   1.905       .  S
O1490     Ni1495   1.957       .  S
C1492      O1493   1.272       .  A
C1497      C1498   1.411       .  A
C1497      C1502   1.416       .  A
C1498      C2027   1.391       .  A
C1498      H1511   1.079       .  S
C1499      C2026   1.391       .  A
C1499      C1500   1.395   1_565  A
C1499      H1512   1.084       .  S
C1500      C1501   1.400       .  A
C1500      C1503   1.437       .  S
C1501      C2030   1.404       .  A
C1501      H1513   1.084       .  S
C1502      C2029   1.404       .  A
C1502      H1514   1.081       .  S
C1503      C1504   1.205       .  T
C1504      C1505   1.437       .  S
C1505      C1506   1.396       .  A
C1505      C1510   1.401       .  A
C1506      C1507   1.398       .  A
C1506      H1515   1.083       .  S
C1507      C1508   1.412       .  A
C1507      H1516   1.082       .  S
C1508      C1509   1.408       .  A
C1509      C1510   1.396       .  A
C1509      H1517   1.082       .  S
C1510      H1518   1.084       .  S
C1519      C2048   1.411       .  A
C1519      C1524   1.411       .  A
C1520      C2047   1.411   1_545  A
C1520      C1521   1.393       .  A
C1520      H1533   1.080       .  S
C1521      C1522   1.396   1_545  A
C1521      H1534   1.084       .  S
C1522      C2051   1.396       .  A
C1522      C1525   1.433   1_565  S
C1523      C2050   1.396       .  A
C1523      C1524   1.399       .  A
C1523      H1535   1.080       .  S
C1524      H1536   1.082       .  S
C1525      C1526   1.202       .  T
C1526      C1527   1.434       .  S
C1527      C1528   1.398       .  A
C1527      C1532   1.399       .  A
C1528      C1529   1.399       .  A
C1528      H1537   1.084       .  S
C1529      C1530   1.409       .  A
C1529      H1538   1.082       .  S
C1530      C1531   1.406       .  A
C1531      C1532   1.392       .  A
C1531      H1539   1.083       .  S
C1532      H1540   1.084       .  S
C1541      C1542   1.405       .  A
C1541      C1546   1.410       .  A
C1542      C1543   1.396       .  A
C1542      H1555   1.083       .  S
C1543      C1544   1.400       .  A
C1543      H1556   1.084       .  S
C1544      C1545   1.398       .  A
C1544      C1547   1.435       .  S
C1545      C1546   1.397       .  A
C1545      H1557   1.084       .  S
C1546      H1558   1.083       .  S
C1547      C1548   1.203       .  T
C1548      C1549   1.434       .  S
C1549      C1550   1.397       .  A
C1550      C1551   1.396       .  A
C1550      H1559   1.083       .  S
C1551      H1560   1.082       .  S
C1552      C1553   1.408       .  A
C1553      C1554   1.395       .  A
C1553      H1561   1.082       .  S
C1554      H1562   1.084       .  S
C1563      C1564   1.406       .  A
C1564      C1565   1.391       .  A
C1564      H1577   1.082   1_455  S
C1565      H1578   1.084       .  S
C1566      C1569   1.436       .  S
C1567      H1579   1.083       .  S
C1569      C1570   1.202       .  T
C1570      C1571   1.433       .  S
C1571      C1572   1.397       .  A
C1571      C1576   1.399       .  A
C1572      C1573   1.398       .  A
C1573      C1574   1.413       .  A
C1573      H1582   1.082       .  S
C1574      C1575   1.410       .  A
C1575      C1576   1.395       .  A
C1575      H1583   1.080       .  S
C1576      H1584   1.084       .  S
C1585      C1586   1.402       .  A
C1585      C1590   1.403   1_655  A
C1585      C1827   1.491   1_654  S
C1586      C1851   1.400       .  A
C1586      H1591   1.083       .  S
C1587      C1850   1.400       .  A
C1587      C1588   1.421       .  A
C1587      C1987   1.494       .  S
C1588      C1589   1.418       .  A
C1588      H1592   1.083       .  S
C1589      C1854   1.406   1_655  A
C1590      C1853   1.406   1_455  A
C1590      H1593   1.084       .  S
C1594      C1595   1.394       .  A
C1594      C1599   1.392       .  A
C1594      C1816   1.484       .  S
C1595      C1596   1.414       .  A
C1595      H1600   1.083       .  S
C1596      C1597   1.406       .  A
C1596      C1756   1.472       .  S
C1597      C1598   1.401       .  A
C1597      H1601   1.083       .  S
C1598      C1599   1.393       .  A
C1598      C1668   1.446       .  S
C1599      H1602   1.085       .  S
C1603      C1604   1.399       .  A
C1603      C1608   1.402       .  A
C1603      C1783   1.497   1_554  S
C1604      C1605   1.404       .  A
C1604      H1609   1.083       .  S
C1605      C1606   1.418       .  A
C1605      C1642   1.487   1_565  S
C1606      C1607   1.418       .  A
C1606      H1610   1.083       .  S
C1607      C1608   1.405       .  A
C1607      C1719   1.486       .  S
C1608      H1611   1.083       .  S
C1612      C1613   1.405       .  A
C1612      C1617   1.408       .  A
C1612      C1761   1.504       .  S
C1613      C1614   1.399       .  A
C1613      H1618   1.081       .  S
C1614      C1615   1.399       .  A
C1614      C1749   1.461       .  S
C1615      C1616   1.403       .  A
C1615      H1619   1.084       .  S
C1616      C1617   1.411       .  A
C1617      H1620   1.081   1_565  S
O1622     Ni1645   1.912       .  S
O1622      C1631   1.264       .  A
O1623     Ni1891   1.888       .  S
O1623     Ni1645   1.889       .  S
O1623     Ni1639   1.887       .  S
O1623      H1646   0.967       .  S
C1624      C1654   1.427       .  S
C1624      O1641   1.261       .  A
C1624      O1633   1.277       .  A
O1625     Ni1644   1.955       .  S
O1625      C1631   1.278       .  A
O1626     Ni1644   1.926       .  S
O1626      C1628   1.272       .  A
Ni1627     O1630   1.902       .  S
Ni1627     O1887   1.888       .  S
C1628      O1638   1.278       .  A
O1629     Ni1909   1.902       .  S
O1629      C1635   1.276       .  A
O1630      C1635   1.278       .  A
C1631      C1695   1.477       .  S
O1633     Ni1644   1.924       .  S
C1634      O1640   1.274       .  A
C1635      C1660   1.423       .  S
H1636      O1637   0.959       .  S
O1637     Ni1645   1.903       .  S
O1637     Ni1639   1.936       .  S
O1637     Ni1644   1.926       .  S
O1638     Ni1639   1.943       .  S
Ni1639     O1641   1.871       .  S
O1640     Ni1645   1.936       .  S
Ni1645     O1893   1.903       .  S
O1647     Ni1653   1.947       .  S
O1648     Ni1671   1.954       .  S
O1649     Ni1653   1.896       .  S
O1649     Ni1671   1.911       .  S
O1649     Ni1665   1.923       .  S
O1649      H1672   0.966       .  S
C1650      O1667   1.281       .  A
O1651     Ni1670   1.875       .  S
O1651      C1657   1.247       .  A
O1652      C1654   1.255       .  A
Ni1653     O1656   1.938       .  S
Ni1653     O1658   1.874       .  S
C1654      O1664   1.252       .  A
O1655     Ni1671   1.887       .  S
O1655      C1661   1.270       .  A
O1656      C1661   1.274       .  A
C1657      C1684   1.470       .  S
O1658      C1660   1.265       .  A
O1659     Ni1670   1.909       .  S
C1660      O1666   1.276       .  A
C1661      C1704   1.470       .  S
H1662      O1663   0.966       .  S
O1663     Ni1671   1.929       .  S
O1663     Ni1665   1.870       .  S
O1664     Ni1665   1.881       .  S
O1666     Ni1671   1.928       .  S
C1668      O1669   1.259       .  A
C1673      C1674   1.405       .  A
C1673      C1678   1.409       .  A
C1673      C1838   1.500   1_554  S
C1674      C1675   1.403       .  A
C1674      H1679   1.082       .  S
C1675      C1676   1.419       .  A
C1676      C1677   1.419       .  A
C1676      H1680   1.083       .  S
C1677      C1678   1.407       .  A
C1677      C1712   1.498       .  S
C1678      H1681   1.082       .  S
C1682      C1683   1.390       .  A
C1682      C1687   1.388       .  A
C1682      C1805   1.484       .  S
C1683      C1684   1.415       .  A
C1683      H1688   1.084       .  S
C1684      C1685   1.399       .  A
C1685      C1686   1.404       .  A
C1685      H1689   1.084       .  S
C1686      C1687   1.403       .  A
C1686      C1745   1.444       .  S
C1687      H1690   1.082       .  S
C1691      C1692   1.392       .  A
C1691      C1696   1.386       .  A
C1691      C1794   1.485   1_554  S
C1692      C1693   1.417       .  A
C1692      H1697   1.082       .  S
C1693      C1694   1.425       .  A
C1693      C1730   1.508       .  S
C1694      C1695   1.429       .  A
C1694      H1698   1.083       .  S
C1695      C1696   1.395       .  A
C1696      H1699   1.085       .  S
C1700      C1701   1.399       .  A
C1700      C1705   1.398       .  A
C1700      C1772   1.495       .  S
C1701      C1702   1.406       .  A
C1701      H1706   1.083       .  S
C1702      C1703   1.405       .  A
C1702      C1738   1.474       .  S
C1703      C1704   1.408       .  A
C1703      H1707   1.083       .  S
C1704      C1705   1.409       .  A
C1705      H1708   1.083       .  S
O1709     Ni1715   1.897       .  S
O1709      C1730   1.263       .  A
O1710     Ni1733   1.897       .  S
O1710      C1719   1.272       .  A
O1711     Ni1715   1.893       .  S
O1711     Ni1733   1.880       .  S
O1711     Ni1727   1.941       .  S
O1711      H1734   0.966       .  S
C1712      O1729   1.286       .  A
C1712      O1721   1.280       .  A
O1713     Ni1732   1.960       .  S
O1713      C1719   1.280       .  A
O1714     Ni1732   1.911       .  S
O1714      C1716   1.272       .  A
Ni1715     O1982   1.921       .  S
Ni1715     O1984   1.928       .  S
C1716      C1748   1.485       .  S
C1716      O1726   1.286       .  A
O1717     Ni1733   1.961       .  S
O1717      C1723   1.294       .  A
O1718     Ni1979   1.921       .  S
O1718      C1987   1.278       .  A
O1720     Ni1979   1.927       .  S
O1720      C1722   1.264       .  A
O1721     Ni1732   1.949       .  S
C1722      C1742   1.485       .  S
C1722      O1728   1.269       .  A
C1723      C1851   1.494       .  S
C1723      O1982   1.278       .  A
H1724      O1725   0.966       .  S
O1725     Ni1733   1.923       .  S
O1725     Ni1727   1.913       .  S
O1725     Ni1732   1.904       .  S
O1726     Ni1727   1.971       .  S
Ni1727     O1731   1.979       .  S
Ni1727     O1729   1.934       .  S
O1728     Ni1997   1.945       .  S
C1730      O1731   1.281       .  A
Ni1733     O1992   1.945       .  S
O1735     Ni1741   1.900       .  S
O1735      C1756   1.262       .  A
O1736     Ni1759   1.894       .  S
O1736      C1745   1.263       .  A
O1737     Ni1741   1.886       .  S
O1737     Ni1759   1.878       .  S
O1737     Ni1753   1.925       .  S
O1737      H1760   0.967       .  S
C1738      O1755   1.278       .  A
C1738      O1747   1.283       .  A
O1739     Ni1758   1.908       .  S
O1739      C1745   1.268       .  A
O1740     Ni1758   1.911       .  S
O1740      C1742   1.270       .  A
Ni1741     O1744   1.923       .  S
Ni1741     O1746   1.910       .  S
C1742      O1752   1.282       .  A
O1743     Ni1759   1.921       .  S
O1743      C1749   1.281       .  A
O1744      C1749   1.280       .  A
O1746      C1748   1.264       .  A
O1747     Ni1758   1.943       .  S
C1748      O1754   1.272       .  A
H1750      O1751   0.966       .  S
O1751     Ni1759   1.939       .  S
O1751     Ni1753   1.887       .  S
O1751     Ni1758   1.891       .  S
O1752     Ni1753   1.959       .  S
Ni1753     O1757   1.931       .  S
Ni1753     O1755   1.906       .  S
O1754     Ni1759   1.957       .  S
C1756      O1757   1.272       .  A
C1761      C1762   1.411       .  A
C1761      C1766   1.416   1_565  A
C1762      H1775   1.079       .  S
C1763      C1764   1.395       .  A
C1763      H1776   1.084       .  S
C1764      C1765   1.400       .  A
C1764      C1767   1.437       .  S
C1765      H1777   1.083       .  S
C1766      H1778   1.081       .  S
C1767      C1768   1.204       .  T
C1768      C1769   1.437       .  S
C1769      C1770   1.396       .  A
C1769      C1774   1.401       .  A
C1770      C1771   1.398       .  A
C1770      H1779   1.083       .  S
C1771      C1772   1.412       .  A
C1771      H1780   1.082       .  S
C1772      C1773   1.408       .  A
C1773      C1774   1.396       .  A
C1773      H1781   1.082       .  S
C1774      H1782   1.084       .  S
C1783      C1788   1.411       .  A
C1784      C1785   1.392       .  A
C1784      H1797   1.081       .  S
C1785      C1786   1.396       .  A
C1785      H1798   1.084       .  S
C1786      C1789   1.433       .  S
C1787      C1788   1.399       .  A
C1787      H1799   1.080       .  S
C1788      H1800   1.082       .  S
C1789      C1790   1.202       .  T
C1790      C1791   1.434       .  S
C1791      C1792   1.398       .  A
C1791      C1796   1.399       .  A
C1792      C1793   1.398       .  A
C1792      H1801   1.084       .  S
C1793      C1794   1.409       .  A
C1793      H1802   1.082       .  S
C1794      C1795   1.406       .  A
C1795      C1796   1.392       .  A
C1795      H1803   1.083   1_556  S
C1796      H1804   1.084       .  S
C1805      C1806   1.405       .  A
C1805      C1810   1.410       .  A
C1806      C1807   1.396       .  A
C1806      H1819   1.083       .  S
C1807      C1808   1.400       .  A
C1807      H1820   1.084       .  S
C1808      C1809   1.398       .  A
C1808      C1811   1.435       .  S
C1809      C1810   1.397       .  A
C1809      H1821   1.084       .  S
C1810      H1822   1.083       .  S
C1811      C1812   1.202       .  T
C1812      C1813   1.433       .  S
C1813      C1814   1.396       .  A
C1814      C1815   1.396       .  A
C1814      H1823   1.082       .  S
C1815      H1824   1.082       .  S
C1816      C1817   1.408       .  A
C1817      C1818   1.395       .  A
C1817      H1825   1.083       .  S
C1818      H1826   1.084       .  S
C1827      C1828   1.406       .  A
C1827      C2096   1.412       .  A
C1828      C1829   1.391       .  A
C1828      H1841   1.082   1_456  S
C1829      H1842   1.084       .  S
C1830      C2095   1.399       .  A
C1830      C1833   1.436       .  S
C1831      C2094   1.399       .  A
C1831      H1843   1.083       .  S
C1832      C2091   1.412       .  A
C1833      C1834   1.203       .  T
C1834      C1835   1.433       .  S
C1835      C1836   1.397       .  A
C1835      C1840   1.399       .  A
C1836      C1837   1.399       .  A
C1836      H2109   1.084       .  S
C1837      C1838   1.413       .  A
C1837      H1846   1.082       .  S
C1838      C1839   1.410       .  A
C1839      C1840   1.395       .  A
C1839      H1847   1.080       .  S
C1840      H1848   1.084       .  S
H1845      C2100   1.084       .  S
C1849      C1850   1.402       .  A
C1849      C1854   1.403   1_655  A
C1849      C2091   1.491   1_655  S
C1850      H1855   1.083       .  S
C1851      C1852   1.422       .  A
C1852      C1853   1.418       .  A
C1852      H1856   1.083       .  S
C1854      H1857   1.084       .  S
C1858      C1859   1.395       .  A
C1858      C1863   1.392       .  A
C1858      C2080   1.485       .  S
C1859      C1860   1.415       .  A
C1859      H1864   1.083       .  S
C1860      C1861   1.405       .  A
C1860      C2020   1.472       .  S
C1861      C1862   1.400       .  A
C1861      H1865   1.083       .  S
C1862      C1863   1.393       .  A
C1862      C1932   1.445       .  S
C1863      H1866   1.085       .  S
C1867      C1868   1.400       .  A
C1867      C1872   1.402       .  A
C1867      C2047   1.498       .  S
C1868      C1869   1.405       .  A
C1868      H1873   1.083       .  S
C1869      C1870   1.417       .  A
C1869      C1906   1.486   1_565  S
C1870      C1871   1.418       .  A
C1870      H1874   1.083       .  S
C1871      C1872   1.405       .  A
C1871      C1983   1.485       .  S
C1872      H1875   1.083       .  S
C1876      C1877   1.405       .  A
C1876      C1881   1.408       .  A
C1876      C2025   1.504       .  S
C1877      C1878   1.400       .  A
C1877      H1882   1.081       .  S
C1878      C1879   1.399       .  A
C1878      C2013   1.462       .  S
C1879      C1880   1.403       .  A
C1879      H1883   1.084       .  S
C1880      C1881   1.411       .  A
C1881      H1884   1.081   1_565  S
O1886     Ni1909   1.912       .  S
O1886      C1895   1.264       .  A
O1887     Ni1909   1.889       .  S
O1887     Ni1903   1.886       .  S
O1887      H1910   0.967       .  S
C1888      C1918   1.427       .  S
C1888      O1905   1.261       .  A
C1888      O1897   1.277       .  A
O1889     Ni1908   1.955       .  S
O1889      C1895   1.278       .  A
O1890     Ni1908   1.926       .  S
O1890      C1892   1.272       .  A
Ni1891     O1894   1.902   1_554  S
C1892      O1902   1.278       .  A
O1893      C1899   1.276   1_554  A
O1894      C1899   1.278       .  A
C1895      C1959   1.477       .  S
O1897     Ni1908   1.923       .  S
C1898      O1904   1.274       .  A
C1899      C1924   1.423       .  S
H1900      O1901   0.960       .  S
O1901     Ni1909   1.902       .  S
O1901     Ni1903   1.937       .  S
O1901     Ni1908   1.926       .  S
O1902     Ni1903   1.942       .  S
Ni1903     O1905   1.871       .  S
O1904     Ni1909   1.936       .  S
O1911     Ni1917   1.947       .  S
O1912     Ni1935   1.955       .  S
O1913     Ni1917   1.896       .  S
O1913     Ni1935   1.911       .  S
O1913     Ni1929   1.922       .  S
O1913      H1936   0.966       .  S
C1914      O1931   1.281       .  A
O1915     Ni1934   1.875       .  S
O1915      C1921   1.247       .  A
O1916      C1918   1.255       .  A
Ni1917     O1920   1.938       .  S
Ni1917     O1922   1.873       .  S
C1918      O1928   1.252       .  A
O1919     Ni1935   1.886       .  S
O1919      C1925   1.270       .  A
O1920      C1925   1.275       .  A
C1921      C1948   1.471       .  S
O1922      C1924   1.265       .  A
O1923     Ni1934   1.909       .  S
C1924      O1930   1.276       .  A
C1925      C1968   1.469       .  S
H1926      O1927   0.966       .  S
O1927     Ni1935   1.929       .  S
O1927     Ni1929   1.870       .  S
O1928     Ni1929   1.881       .  S
O1930     Ni1935   1.928       .  S
C1932      O1933   1.258       .  A
C1937      C1938   1.404       .  A
C1937      C1942   1.409       .  A
C1937      C2102   1.500       .  S
C1938      C1939   1.403       .  A
C1938      H1943   1.082       .  S
C1939      C1940   1.419       .  A
C1940      C1941   1.419       .  A
C1940      H1944   1.083       .  S
C1941      C1942   1.407       .  A
C1941      C1976   1.498       .  S
C1942      H1945   1.082       .  S
C1946      C1947   1.390       .  A
C1946      C1951   1.388       .  A
C1946      C2069   1.485       .  S
C1947      C1948   1.415       .  A
C1947      H1952   1.084       .  S
C1948      C1949   1.399       .  A
C1949      C1950   1.404       .  A
C1949      H1953   1.084       .  S
C1950      C1951   1.403       .  A
C1950      C2009   1.445       .  S
C1951      H1954   1.082       .  S
C1955      C1956   1.392       .  A
C1955      C1960   1.387       .  A
C1955      C2058   1.486       .  S
C1956      C1957   1.417       .  A
C1956      H1961   1.082       .  S
C1957      C1958   1.425       .  A
C1957      C1994   1.509       .  S
C1958      C1959   1.429       .  A
C1958      H1962   1.083       .  S
C1959      C1960   1.396       .  A
C1960      H1963   1.085       .  S
C1964      C1965   1.399       .  A
C1964      C1969   1.398       .  A
C1964      C2036   1.495       .  S
C1965      C1966   1.406       .  A
C1965      H1970   1.083       .  S
C1966      C1967   1.405       .  A
C1966      C2002   1.473       .  S
C1967      C1968   1.408       .  A
C1967      H1971   1.083       .  S
C1968      C1969   1.410       .  A
C1969      H1972   1.083       .  S
O1973     Ni1979   1.897       .  S
O1973      C1994   1.263       .  A
O1974     Ni1997   1.896       .  S
O1974      C1983   1.272       .  A
O1975     Ni1979   1.892       .  S
O1975     Ni1997   1.880       .  S
O1975     Ni1991   1.941       .  S
O1975      H1998   0.966       .  S
C1976      O1993   1.286       .  A
C1976      O1985   1.280       .  A
O1977     Ni1996   1.960       .  S
O1977      C1983   1.280       .  A
O1978     Ni1996   1.911       .  S
O1978      C1980   1.272       .  A
C1980      C2012   1.485       .  S
C1980      O1990   1.286       .  A
O1981     Ni1997   1.960       .  S
O1981      C1987   1.294       .  A
O1984      C1986   1.264   1_554  A
O1985     Ni1996   1.949       .  S
C1986      C2006   1.485       .  S
C1986      O1992   1.270   1_556  A
H1988      O1989   0.966       .  S
O1989     Ni1997   1.923       .  S
O1989     Ni1991   1.913       .  S
O1989     Ni1996   1.904       .  S
O1990     Ni1991   1.971       .  S
Ni1991     O1995   1.980       .  S
Ni1991     O1993   1.935       .  S
C1994      O1995   1.281       .  A
O1999     Ni2005   1.899       .  S
O1999      C2020   1.261       .  A
O2000     Ni2023   1.894       .  S
O2000      C2009   1.263       .  A
O2001     Ni2005   1.886       .  S
O2001     Ni2023   1.878       .  S
O2001     Ni2017   1.925       .  S
O2001      H2024   0.967       .  S
C2002      O2019   1.278       .  A
C2002      O2011   1.283       .  A
O2003     Ni2022   1.908       .  S
O2003      C2009   1.268       .  A
O2004     Ni2022   1.911       .  S
O2004      C2006   1.270       .  A
Ni2005     O2008   1.924       .  S
Ni2005     O2010   1.910       .  S
C2006      O2016   1.282       .  A
O2007     Ni2023   1.922       .  S
O2007      C2013   1.281       .  A
O2008      C2013   1.281       .  A
O2010      C2012   1.263       .  A
O2011     Ni2022   1.943       .  S
C2012      O2018   1.272       .  A
H2014      O2015   0.966       .  S
O2015     Ni2023   1.939       .  S
O2015     Ni2017   1.887       .  S
O2015     Ni2022   1.891       .  S
O2016     Ni2017   1.959       .  S
Ni2017     O2021   1.931       .  S
Ni2017     O2019   1.905       .  S
O2018     Ni2023   1.957       .  S
C2020      O2021   1.272       .  A
C2025      C2026   1.411       .  A
C2025      C2030   1.416   1_565  A
C2026      H2039   1.079       .  S
C2027      C2028   1.395       .  A
C2027      H2040   1.084       .  S
C2028      C2029   1.400       .  A
C2028      C2031   1.437       .  S
C2029      H2041   1.084       .  S
C2030      H2042   1.081       .  S
C2031      C2032   1.205       .  T
C2032      C2033   1.437       .  S
C2033      C2034   1.396       .  A
C2033      C2038   1.401       .  A
C2034      C2035   1.398       .  A
C2034      H2043   1.083       .  S
C2035      C2036   1.412       .  A
C2035      H2044   1.082       .  S
C2036      C2037   1.408       .  A
C2037      C2038   1.396       .  A
C2037      H2045   1.082       .  S
C2038      H2046   1.084       .  S
C2047      C2052   1.411       .  A
C2048      C2049   1.393       .  A
C2048      H2061   1.080       .  S
C2049      C2050   1.396       .  A
C2049      H2062   1.084       .  S
C2050      C2053   1.433       .  S
C2051      C2052   1.399       .  A
C2051      H2063   1.080       .  S
C2052      H2064   1.082       .  S
C2053      C2054   1.202       .  T
C2054      C2055   1.434       .  S
C2055      C2056   1.398       .  A
C2055      C2060   1.399       .  A
C2056      C2057   1.399       .  A
C2056      H2065   1.084       .  S
C2057      C2058   1.409       .  A
C2057      H2066   1.082       .  S
C2058      C2059   1.406       .  A
C2059      C2060   1.392       .  A
C2059      H2067   1.083       .  S
C2060      H2068   1.084       .  S
C2069      C2070   1.405       .  A
C2069      C2074   1.410       .  A
C2070      C2071   1.396       .  A
C2070      H2083   1.083       .  S
C2071      C2072   1.400       .  A
C2071      H2084   1.084       .  S
C2072      C2073   1.398       .  A
C2072      C2075   1.435       .  S
C2073      C2074   1.397       .  A
C2073      H2085   1.084       .  S
C2074      H2086   1.083       .  S
C2075      C2076   1.203       .  T
C2076      C2077   1.434       .  S
C2077      C2078   1.397       .  A
C2078      C2079   1.396       .  A
C2078      H2087   1.083       .  S
C2079      H2088   1.082       .  S
C2080      C2081   1.408       .  A
C2081      C2082   1.395       .  A
C2081      H2089   1.082       .  S
C2082      H2090   1.084       .  S
C2091      C2092   1.406       .  A
C2092      C2093   1.391       .  A
C2092      H2105   1.082   1_455  S
C2093      H2106   1.084       .  S
C2094      C2097   1.436       .  S
C2095      H2107   1.083       .  S
C2097      C2098   1.202       .  T
C2098      C2099   1.433       .  S
C2099      C2100   1.397       .  A
C2099      C2104   1.399       .  A
C2100      C2101   1.398       .  A
C2101      C2102   1.413       .  A
C2101      H2110   1.082       .  S
C2102      C2103   1.410       .  A
C2103      C2104   1.395       .  A
C2103      H2111   1.080       .  S
C2104      H2112   1.084       .  S
