geometry optimzed in LAMMPS
_audit_creation_date              2020-11-30 
_audit_creation_method            'lammps2cif' 
_symmetry_space_group_name_H-M    'P1' 
_symmetry_Int_Tables_number       1 
_symmetry_cell_setting            triclinic 
loop_ 
_symmetry_equiv_pos_as_xyz 
  x,y,z 
_cell_length_a                    44.24948605 
_cell_length_b                    44.24551873994821 
_cell_length_c                    44.26963003927616 
_cell_angle_alpha                 90.27450080765207 
_cell_angle_beta                  90.0023666059672 
_cell_angle_gamma                 90.05637833039626 
loop_ 
_atom_site_label 
_atom_site_type_symbol 
_atom_site_fract_x 
_atom_site_fract_y 
_atom_site_fract_z 
_atom_site_charge 
O1          O  0.49944146  0.04844332  0.47503019    -0.73700
O2          O  0.49771192  0.45726595  0.47335210    -0.74700
O3          O  0.45302985  0.50327927  0.47312504    -0.63300
O4          O  0.04320682  0.00103793  0.47651943    -0.71700
O5          O  0.04293329  0.99988875  0.02513638    -0.71300
O6          O  0.45255727  0.50460888  0.02452059    -0.62500
O7          O  0.99505641  0.45744869  0.02528854    -0.75000
O8          O  0.00018420  0.04801261  0.02536676    -0.73800
Cu9        Cu  0.49836266  0.50274947  0.47196984     1.04600
Cu10       Cu  0.99744947  0.00282174  0.02683969     1.04300
C11         C  0.50049088  0.06241567  0.00075987     0.92500
C12         C  0.99450959  0.44293964  0.00026355     0.91600
C13         C  0.43826216  0.00463024  0.99903754     0.83800
C14         C  0.05756749  0.49945406  0.00086841     0.90100
O15         O  0.04719926  0.50176261  0.27526019    -0.73700
O16         O  0.45634158  0.49212546  0.27515344    -0.74700
O17         O  0.50468635  0.44965668  0.27531033    -0.63300
O18         O  0.99831865  0.04476738  0.27599583    -0.71700
O19         O  0.99771067  0.04350369  0.22587152    -0.71300
O20         O  0.50465683  0.44844119  0.22521326    -0.62500
O21         O  0.45391288  0.99221599  0.22518102    -0.75000
O22         O  0.04492687  0.00039892  0.22577316    -0.73800
Cu23       Cu  0.50168576  0.49505055  0.27633835     1.04600
Cu24       Cu  0.99972573  0.99806634  0.22491820     1.04300
C25         C  0.06093624  0.50219834  0.24985538     0.92500
C26         C  0.44001505  0.99210103  0.25051177     0.91600
C27         C  0.00460355  0.43901734  0.25210370     0.83800
C28         C  0.49904984  0.05401350  0.24925271     0.90100
O29         O  0.47702656  0.25423564  0.04636770    -0.73700
O30         O  0.48066143  0.25036116  0.45458933    -0.74700
O31         O  0.47888917  0.20719555  0.50166997    -0.63300
O32         O  0.47634043  0.29751622  0.99913371    -0.71700
O33         O  0.02028972  0.29873313  0.00210048    -0.71300
O34         O  0.02572234  0.20880705  0.50158871    -0.62500
O35         O  0.02500661  0.25403437  0.45638197    -0.75000
O36         O  0.02133690  0.25277935  0.04659265    -0.73800
Cu37       Cu  0.47692008  0.25240954  0.49973389     1.04600
Cu38       Cu  0.02363840  0.25341959  0.00126313     1.04300
C39         C  0.50207714  0.25342047  0.06068127     0.92500
C40         C  0.50615017  0.24997019  0.44102425     0.91600
C41         C  0.50296809  0.19293668  0.00257894     0.83800
C42         C  0.50305633  0.31234355  0.49974073     0.90100
O43         O  0.02704780  0.29328629  0.25035249    -0.73700
O44         O  0.02374630  0.20263597  0.25031781    -0.74700
O45         O  0.02392160  0.24757318  0.20502385    -0.63300
O46         O  0.02659798  0.24841114  0.29576306    -0.71700
O47         O  0.48248276  0.24532153  0.29670377    -0.71300
O48         O  0.47854220  0.24585781  0.20608545    -0.62500
O49         O  0.47875112  0.19995541  0.25141384    -0.75000
O50         O  0.48218825  0.29064892  0.25215756    -0.73800
Cu51       Cu  0.02706846  0.24789831  0.25027633     1.04600
Cu52       Cu  0.47875786  0.24545225  0.25159586     1.04300
C53         C  0.50769276  0.30415622  0.25117313     0.92500
C54         C  0.50327519  0.18473974  0.25067447     0.91600
C55         C  0.50299058  0.24457337  0.19075502     0.83800
C56         C  0.50807309  0.24525013  0.31008731     0.90100
O57         O  0.24667912  0.47707608  0.45234723    -0.73700
O58         O  0.25031803  0.47563075  0.04266953    -0.74700
O59         O  0.20290439  0.47566603  0.99940657    -0.63300
O60         O  0.29358592  0.47711932  0.49586028    -0.71700
O61         O  0.29260451  0.02742322  0.49858256    -0.71300
O62         O  0.20190153  0.02572904  0.99823060    -0.62500
O63         O  0.24731394  0.02601446  0.04371023    -0.75000
O64         O  0.24677438  0.02750524  0.45378999    -0.73800
Cu65       Cu  0.24841738  0.47475501  0.99754953     1.04600
Cu66       Cu  0.24722456  0.02832205  0.49906598     1.04300
C67         C  0.24692338  0.50224965  0.43830049     0.92500
C68         C  0.25001559  0.50039677  0.05762002     0.91600
C69         C  0.18808450  0.50075726  0.49876210     0.83800
C70         C  0.30776180  0.50265442  0.99682222     0.90100
O71         O  0.29662800  0.02104103  0.24935269    -0.73700
O72         O  0.20588195  0.02676408  0.24751882    -0.74700
O73         O  0.25067076  0.02471974  0.29344604    -0.63300
O74         O  0.25192819  0.02290682  0.20294001    -0.71700
O75         O  0.25073312  0.47155019  0.20307146    -0.71300
O76         O  0.24892006  0.47325855  0.29343464    -0.62500
O77         O  0.20450632  0.47510961  0.24696911    -0.75000
O78         O  0.29521266  0.46944452  0.24914469    -0.73800
Cu79       Cu  0.25139492  0.02561817  0.24824846     1.04600
Cu80       Cu  0.24973008  0.47061003  0.24819154     1.04300
C81         C  0.31101272  0.49362620  0.24962994     0.92500
C82         C  0.19162776  0.50095084  0.24675956     0.91600
C83         C  0.25089122  0.49842979  0.30756281     0.83800
C84         C  0.25177417  0.49629901  0.18844818     0.90100
C85         C  0.24758672  0.50218687  0.40478943    -0.06900
C86         C  0.25927690  0.47651049  0.39010097    -0.18000
C87         C  0.26164277  0.47500019  0.35868444     0.10300
C88         C  0.25091333  0.49922618  0.34098789    -0.06800
C89         C  0.23788158  0.02620621  0.35629068    -0.18000
C90         C  0.23652704  0.02790363  0.38792022     0.10400
S91         S  0.28021558  0.44226167  0.34295839    -0.33000
S92         S  0.22112007  0.06164759  0.40522519    -0.33000
H93         H  0.21780400  0.07867537  0.37868536     0.28400
H94         H  0.29722278  0.45881678  0.32185122     0.28400
H95         H  0.26767809  0.45770971  0.40325258     0.18900
H96         H  0.22965871  0.04494230  0.34299236     0.19000
C97         C  0.25163876  0.49951411  0.09101309    -0.06900
C98         C  0.24091193  0.47362933  0.10578867    -0.18000
C99         C  0.24082882  0.47152162  0.13737620     0.10300
C100        C  0.25159600  0.49620557  0.15489571    -0.06800
C101        C  0.25971331  0.02385250  0.14016675    -0.18000
C102        C  0.26041275  0.02550069  0.10868070     0.10400
S103        S  0.22586875  0.43753748  0.15440662    -0.33000
S104        S  0.27501990  0.05992879  0.09264001    -0.33000
H105        H  0.29376995  0.04494630  0.07170080     0.28400
H106        H  0.21854739  0.42204150  0.12757328     0.28400
H107        H  0.23204963  0.45505700  0.09242865     0.18900
H108        H  0.26691893  0.04344617  0.15305894     0.19000
C109        C  0.50725322  0.24721889  0.40760316    -0.06900
C110        C  0.02350107  0.26612983  0.39247438    -0.18000
C111        C  0.02413511  0.26685760  0.36083867     0.10300
C112        C  0.50889729  0.24626509  0.34356734    -0.06800
C113        C  0.48548969  0.23191438  0.35939245    -0.18000
C114        C  0.48470152  0.23170518  0.39095347     0.10400
S115        S  0.05210293  0.29072655  0.34335190    -0.33000
S116        S  0.45519547  0.20971017  0.40838165    -0.33000
H117        H  0.47409545  0.19747526  0.43078728     0.28400
H118        H  0.03274092  0.30151965  0.32062914     0.28400
H119        H  0.03990273  0.27935994  0.40501413     0.18900
H120        H  0.46796647  0.21999192  0.34705426     0.19000
C121        C  0.50176570  0.24545380  0.15742650    -0.06900
C122        C  0.48411807  0.26777093  0.14351195    -0.18000
C123        C  0.48405574  0.27119570  0.11197393     0.10300
C124        C  0.50204352  0.25187705  0.09399353    -0.06800
C125        C  0.01894718  0.23553583  0.10870920    -0.18000
C126        C  0.01956277  0.23267992  0.14014846     0.10400
S127        S  0.46240584  0.30131253  0.09506305    -0.33000
S128        S  0.04815127  0.20841061  0.15592387    -0.33000
H129        H  0.02891775  0.19576577  0.17780755     0.28400
H130        H  0.45009169  0.31288749  0.12202390     0.28400
H131        H  0.47101544  0.28304768  0.15750610     0.18900
H132        H  0.03616381  0.22418160  0.09543161     0.19000
C133        C  0.09439432  0.50352478  0.24875375    -0.06900
C134        C  0.10941988  0.48586625  0.22704033    -0.18000
C135        C  0.14097983  0.48539515  0.22530278     0.10300
C136        C  0.15826250  0.50271452  0.24589015    -0.06800
C137        C  0.14179982  0.02359990  0.26560753    -0.18000
C138        C  0.11019202  0.02339539  0.26782968     0.10400
S139        S  0.15777519  0.46293666  0.19568727    -0.33000
S140        S  0.09278134  0.04991601  0.29334963    -0.33000
H141        H  0.08239580  0.02707771  0.31276957     0.28400
H142        H  0.18193030  0.48288871  0.19028713     0.28400
H143        H  0.09648188  0.47213600  0.21140294     0.18900
H144        H  0.15472199  0.03846856  0.28023344     0.19000
C145        C  0.40825803  0.48900953  0.25091171    -0.06900
C146        C  0.39143324  0.01112218  0.27071462    -0.18000
C147        C  0.35983636  0.01225329  0.27156470     0.10300
C148        C  0.34433035  0.49161626  0.25129032    -0.06800
C149        C  0.35958074  0.47239726  0.23110647    -0.18000
C150        C  0.39123680  0.47074262  0.23082748     0.10400
S151        S  0.34268656  0.03762316  0.29855680    -0.33000
S152        S  0.40841001  0.44421295  0.20500564    -0.33000
H153        H  0.43193978  0.43588126  0.22465884     0.28400
H154        H  0.31844613  0.01831630  0.30566348     0.28400
H155        H  0.40428647  0.02619890  0.28518840     0.18900
H156        H  0.34675681  0.45874865  0.21529224     0.19000
C157        C  0.00375723  0.34178433  0.25341783    -0.06900
C158        C  0.02499729  0.35710642  0.23554126    -0.18000
C159        C  0.02585938  0.38874124  0.23476265     0.10300
C160        C  0.00542377  0.40565447  0.25256120    -0.06800
C161        C  0.49153365  0.38564892  0.27294912    -0.18000
C162        C  0.49164848  0.35405166  0.27396711     0.10400
S163        S  0.05454976  0.40641508  0.21206503    -0.33000
S164        S  0.47018948  0.33628761  0.30364832    -0.33000
H165        H  0.49058700  0.31239911  0.30819656     0.28400
H166        H  0.03347597  0.41853952  0.19167328     0.28400
H167        H  0.04061699  0.34437531  0.22158406     0.18900
H168        H  0.47785628  0.39804929  0.28907393     0.19000
C169        C  0.50216604  0.15136544  0.25109327    -0.06900
C170        C  0.01627812  0.13999437  0.23134844    -0.18000
C171        C  0.01687426  0.10839027  0.23059811     0.10300
C172        C  0.50043747  0.08745056  0.24922012    -0.06800
C173        C  0.48375197  0.10357083  0.27094525    -0.18000
C174        C  0.48457391  0.13521234  0.27223414     0.10400
S175        S  0.04340376  0.09066812  0.20519438    -0.33000
S176        S  0.46380453  0.15352746  0.30220493    -0.33000
H177        H  0.48522272  0.17652121  0.30722566     0.28400
H178        H  0.05234597  0.06817759  0.22569436     0.28400
H179        H  0.03077966  0.15245358  0.21615184     0.18900
H180        H  0.47009340  0.09141954  0.28718053     0.19000
C181        C  0.09073664  0.49885045  0.50026759    -0.06900
C182        C  0.10600565  0.01710706  0.48061192    -0.18000
C183        C  0.13763315  0.01814902  0.47968409     0.10300
C184        C  0.15463404  0.50036787  0.49872679    -0.06800
C185        C  0.13960987  0.48116422  0.01947403    -0.18000
C186        C  0.10795588  0.48011634  0.02040186     0.10400
S187        S  0.15609589  0.04138431  0.45173860    -0.33000
S188        S  0.09070295  0.45399624  0.04636911    -0.33000
H189        H  0.06699969  0.44560014  0.02686828     0.28400
H190        H  0.12978771  0.05341825  0.43864631     0.28400
H191        H  0.09304839  0.03086249  0.46514321     0.18900
H192        H  0.15248943  0.46707013  0.03474917     0.19000
C193        C  0.34119841  0.50346586  0.99637667    -0.06900
C194        C  0.35617593  0.02491588  0.01447405    -0.18000
C195        C  0.38780456  0.02615455  0.01543082     0.10300
C196        C  0.40490351  0.00528839  0.99828816    -0.08600
C197        C  0.38985949  0.48343854  0.47914340    -0.18000
C198        C  0.35825794  0.48243994  0.47795625     0.10400
S199        S  0.40493647  0.05553762  0.03804191    -0.33000
S200        S  0.34136054  0.45522047  0.45262424    -0.33000
H201        H  0.31835526  0.47468021  0.44258331     0.28400
H202        H  0.42932984  0.06069442  0.01834873     0.28400
H203        H  0.34327351  0.04076976  0.02805592     0.18900
H204        H  0.40277405  0.46742540  0.46574637     0.19000
C205        C  0.99273445  0.41011472  0.50193529    -0.06900
C206        C  0.00907801  0.39404509  0.02314574    -0.18000
C207        C  0.00942770  0.36244278  0.02425068     0.10300
C208        C  0.99448689  0.34620735  0.50272453    -0.06800
C209        C  0.48388050  0.36015917  0.47827128    -0.18000
C210        C  0.48146586  0.39169536  0.47745536     0.10400
S211        S  0.02954608  0.34503791  0.05503124    -0.33000
S212        S  0.45609427  0.40767801  0.44998369    -0.33000
H213        H  0.44513310  0.43042526  0.46936759     0.28400
H214        H  0.00908553  0.32098263  0.05871566     0.28400
H215        H  0.02160835  0.40669695  0.04000788     0.18900
H216        H  0.47123036  0.34674447  0.46210446     0.19000
C217        C  0.50331946  0.15963254  0.00358010    -0.06900
C218        C  0.02150412  0.14462898  0.48353899    -0.18000
C219        C  0.02227190  0.11296367  0.48291680     0.10300
C220        C  0.50251558  0.09579339  0.00156714    -0.06800
C221        C  0.48569554  0.11160253  0.02340410    -0.18000
C222        C  0.48611191  0.14321094  0.02479977     0.10400
S223        S  0.04891058  0.09517282  0.45769674    -0.33000
S224        S  0.46506714  0.16119239  0.05478489    -0.33000
H225        H  0.48584460  0.18484052  0.05945143     0.28400
H226        H  0.05627386  0.07165132  0.47763325     0.28400
H227        H  0.03579715  0.15719114  0.46817291     0.18900
H228        H  0.47204158  0.09924127  0.03950417     0.19000
O229        O  0.49947617  0.04840123  0.97545145    -0.73700
O230        O  0.49736495  0.45750110  0.97435922    -0.74700
O231        O  0.45316607  0.50400174  0.97439937    -0.63300
O232        O  0.04285937  0.00024510  0.97502548    -0.71700
O233        O  0.04279277  0.00043073  0.52663423    -0.71300
O234        O  0.45232824  0.50401373  0.52327083    -0.62500
O235        O  0.99506180  0.45822100  0.52633552    -0.75000
O236        O  0.00003676  0.04849609  0.52654663    -0.73800
Cu237      Cu  0.49851410  0.50299443  0.97310751     1.04600
Cu238      Cu  0.99731221  0.00324281  0.52776807     1.04300
C239        C  0.50035687  0.06253116  0.50030440     0.92500
C240        C  0.99416731  0.44355852  0.50141254     0.91600
C241        C  0.43805520  0.00472978  0.49856447     0.83800
C242        C  0.05731087  0.49997761  0.50079001     0.90100
O243        O  0.04557847  0.50157997  0.77582602    -0.73700
O244        O  0.45461746  0.49407753  0.77559542    -0.74700
O245        O  0.50108835  0.44970013  0.77498499    -0.63300
O246        O  0.99944253  0.04400175  0.77556824    -0.71700
O247        O  0.99846170  0.04285728  0.72547987    -0.71300
O248        O  0.50092952  0.44912762  0.72488809    -0.62500
O249        O  0.45575667  0.99067392  0.72582072    -0.75000
O250        O  0.04621113  0.99992564  0.72511918    -0.73800
Cu251      Cu  0.49994827  0.49523132  0.77662752     1.04600
Cu252      Cu  0.00086212  0.99742890  0.72431276     1.04300
C253        C  0.05941651  0.50162125  0.75046411     0.92500
C254        C  0.44178230  0.99060418  0.75109928     0.91600
C255        C  0.00270075  0.43859610  0.75360681     0.83800
C256        C  0.49790937  0.05446447  0.74907413     0.90100
O257        O  0.47668660  0.25418176  0.54506449    -0.73700
O258        O  0.47715967  0.24996402  0.95576931    -0.74700
O259        O  0.47774631  0.20695429  0.00310714    -0.63300
O260        O  0.47826378  0.29763981  0.49807915    -0.71700
O261        O  0.02163685  0.29964061  0.50227944    -0.71300
O262        O  0.02356561  0.20803829  0.00053493    -0.62500
O263        O  0.02234001  0.25358588  0.95589866    -0.75000
O264        O  0.02238491  0.25418738  0.54707302    -0.73800
Cu265      Cu  0.47534911  0.25221413  0.00105503     1.04600
Cu266      Cu  0.02544170  0.25430701  0.50182082     1.04300
C267        C  0.50116696  0.25376627  0.56034416     0.92500
C268        C  0.50211457  0.24997283  0.94125180     0.91600
C269        C  0.50401690  0.19304566  0.50228212     0.83800
C270        C  0.50112496  0.31229330  0.00017502     0.90100
O271        O  0.02417021  0.29299923  0.75187524    -0.73700
O272        O  0.02150537  0.20238566  0.75052658    -0.74700
O273        O  0.02234894  0.24805946  0.70597205    -0.63300
O274        O  0.02306306  0.24767929  0.79647051    -0.71700
O275        O  0.47595179  0.24561434  0.79656979    -0.71300
O276        O  0.47353797  0.24565832  0.70552354    -0.62500
O277        O  0.47316914  0.20007519  0.75112762    -0.75000
O278        O  0.47597838  0.29081158  0.75162932    -0.73800
Cu279      Cu  0.02448179  0.24768711  0.75116257     1.04600
Cu280      Cu  0.47288699  0.24554632  0.75120751     1.04300
C281        C  0.50142983  0.30445226  0.75110022     0.92500
C282        C  0.49784407  0.18511441  0.75044752     0.91600
C283        C  0.49834078  0.24471853  0.69068436     0.83800
C284        C  0.50145153  0.24562333  0.81017406     0.90100
O285        O  0.24665197  0.47739894  0.95243108    -0.73700
O286        O  0.25007081  0.47598861  0.54263154    -0.74700
O287        O  0.20268707  0.47584822  0.49920242    -0.63300
O288        O  0.29383054  0.47734230  0.99584187    -0.71700
O289        O  0.29276844  0.02755986  0.99866967    -0.71300
O290        O  0.20194097  0.02585049  0.49942255    -0.62500
O291        O  0.24785858  0.02558466  0.54420072    -0.75000
O292        O  0.24755990  0.02727482  0.95335484    -0.73800
Cu293      Cu  0.24821627  0.47475988  0.49749703     1.04600
Cu294      Cu  0.24729786  0.02837767  0.99855782     1.04300
C295        C  0.24665423  0.50266357  0.93854230     0.92500
C296        C  0.24995507  0.50086471  0.55741032     0.91600
C297        C  0.18825079  0.50054699  0.99915794     0.83800
C298        C  0.30765760  0.50235434  0.49638326     0.90100
O299        O  0.29821168  0.01989729  0.74907733    -0.73700
O300        O  0.20727078  0.02494476  0.74764037    -0.74700
O301        O  0.25239778  0.02348880  0.79322333    -0.63300
O302        O  0.25315737  0.02143769  0.70294145    -0.71700
O303        O  0.25000643  0.47299655  0.70313803    -0.71300
O304        O  0.24696669  0.47457146  0.79333526    -0.62500
O305        O  0.20319071  0.47619048  0.74645378    -0.75000
O306        O  0.29382484  0.47132373  0.74976822    -0.73800
Cu307      Cu  0.25286169  0.02419081  0.74814556     1.04600
Cu308      Cu  0.24838586  0.47205756  0.74819438     1.04300
C309        C  0.30938453  0.49566454  0.75026547     0.92500
C310        C  0.19005053  0.50189732  0.74618721     0.91600
C311        C  0.24878382  0.49965553  0.80760043     0.83800
C312        C  0.25094047  0.49767765  0.68841385     0.90100
C313        C  0.24668222  0.50279365  0.90499316    -0.06900
C314        C  0.25741862  0.47691456  0.88995057    -0.18000
C315        C  0.25921797  0.47551440  0.85849841     0.10300
C316        C  0.24892569  0.50015376  0.84107022    -0.06800
C317        C  0.23912736  0.02507266  0.85588118    -0.18000
C318        C  0.23757423  0.02697527  0.88746611     0.10400
S319        S  0.27659257  0.44230140  0.84239682    -0.33000
S320        S  0.22096429  0.06031430  0.90443241    -0.33000
H321        H  0.21664450  0.07679127  0.87768888     0.28400
H322        H  0.29449081  0.45860940  0.82182592     0.28400
H323        H  0.26555432  0.45779712  0.90285082     0.18900
H324        H  0.23019971  0.04334298  0.84238823     0.19000
C325        C  0.25166436  0.50022216  0.59085787    -0.06900
C326        C  0.24203665  0.47397427  0.60575792    -0.18000
C327        C  0.24179701  0.47206511  0.63735890     0.10300
C328        C  0.25122267  0.49734607  0.65482551    -0.06800
C329        C  0.26211015  0.02208061  0.64031356    -0.18000
C330        C  0.26272440  0.02385200  0.60884534     0.10400
S331        S  0.22819152  0.43752221  0.65442538    -0.33000
S332        S  0.27939227  0.05732893  0.59278752    -0.33000
H333        H  0.29638238  0.04135986  0.57108865     0.28400
H334        H  0.22350280  0.42094071  0.62764727     0.28400
H335        H  0.23405319  0.45495560  0.59249795     0.18900
H336        H  0.27061646  0.04111500  0.65328230     0.19000
C337        C  0.50209565  0.24754657  0.90775979    -0.06900
C338        C  0.01888412  0.26717841  0.89230540    -0.18000
C339        C  0.01914693  0.26787467  0.86071893     0.10300
C340        C  0.50233329  0.24693278  0.84366122    -0.06800
C341        C  0.47916988  0.23262436  0.85988924    -0.18000
C342        C  0.47906418  0.23226422  0.89150997     0.10400
S343        S  0.04549183  0.29331455  0.84291382    -0.33000
S344        S  0.44987067  0.21031876  0.90949816    -0.33000
H345        H  0.46927523  0.19771820  0.93126029     0.28400
H346        H  0.02566546  0.30229667  0.81981648     0.28400
H347        H  0.03464134  0.28133792  0.90468975     0.18900
H348        H  0.46141482  0.22075655  0.84782536     0.19000
C349        C  0.49803165  0.24531476  0.65722904    -0.06900
C350        C  0.47721422  0.26411090  0.64249063    -0.18000
C351        C  0.47813329  0.26807948  0.61109598     0.10300
C352        C  0.50002355  0.25246340  0.59373072    -0.06800
C353        C  0.02048807  0.23889692  0.60929328    -0.18000
C354        C  0.02083204  0.23586450  0.64071185     0.10400
S355        S  0.45182782  0.29458653  0.59495331    -0.33000
S356        S  0.05146351  0.21436668  0.65668863    -0.33000
H357        H  0.03300093  0.19875955  0.67728188     0.28400
H358        H  0.47192026  0.30575080  0.57307031     0.28400
H359        H  0.46085647  0.27677096  0.65565151     0.18900
H360        H  0.03878408  0.22899590  0.59629096     0.19000
C361        C  0.09283513  0.50296739  0.74929834    -0.06900
C362        C  0.10788082  0.48412668  0.72861438    -0.18000
C363        C  0.13941731  0.48418005  0.72632226     0.10300
C364        C  0.15666306  0.50330520  0.74531980    -0.06800
C365        C  0.14323572  0.02176963  0.76580310    -0.18000
C366        C  0.11160224  0.02195446  0.76767840     0.10400
S367        S  0.15617128  0.46014931  0.69790603    -0.33000
S368        S  0.09425985  0.04853630  0.79317277    -0.33000
H369        H  0.08379920  0.02570861  0.81257225     0.28400
H370        H  0.17979246  0.48018530  0.69073529     0.28400
H371        H  0.09495306  0.46915547  0.71410797     0.18900
H372        H  0.15617110  0.03657093  0.78049964     0.19000
C373        C  0.40658841  0.49180858  0.75147721    -0.06900
C374        C  0.39299469  0.00855973  0.77191685    -0.18000
C375        C  0.36138950  0.00999950  0.77232489     0.10300
C376        C  0.34272466  0.49400561  0.75206034    -0.06800
C377        C  0.35799466  0.47286980  0.73388887    -0.18000
C378        C  0.38963313  0.47139997  0.73357675     0.10400
S379        S  0.34405718  0.03433461  0.80014265    -0.33000
S380        S  0.40694561  0.44239927  0.71065420    -0.33000
H381        H  0.43100099  0.43674711  0.73062713     0.28400
H382        H  0.31933384  0.01519388  0.80583563     0.28400
H383        H  0.40572835  0.02282791  0.78727289     0.18900
H384        H  0.34519711  0.45753440  0.71964368     0.19000
C385        C  0.00084816  0.34144235  0.75471143    -0.06900
C386        C  0.02314052  0.35666806  0.73803096    -0.18000
C387        C  0.02464519  0.38836838  0.73777072     0.10300
C388        C  0.00342993  0.40526571  0.75456397    -0.06800
C389        C  0.48568492  0.38622195  0.77205438    -0.18000
C390        C  0.48535315  0.35463802  0.77323050     0.10400
S391        S  0.05429700  0.40706074  0.71686442    -0.33000
S392        S  0.46356042  0.33728905  0.80291507    -0.33000
H393        H  0.48354649  0.31309352  0.80764103     0.28400
H394        H  0.06899003  0.38074836  0.70665902     0.28400
H395        H  0.03909983  0.34365176  0.72475969     0.18900
H396        H  0.47234535  0.39891112  0.78824853     0.19000
C397        C  0.49713902  0.15176370  0.75044724    -0.06900
C398        C  0.01335627  0.13988513  0.72953208    -0.18000
C399        C  0.01476241  0.10829128  0.72878087     0.10300
C400        C  0.49760778  0.08788656  0.74861615    -0.06800
C401        C  0.48017628  0.10342048  0.77019095    -0.18000
C402        C  0.47988523  0.13507133  0.77143341     0.10400
S403        S  0.03973001  0.09129691  0.70138127    -0.33000
S404        S  0.45822668  0.15269606  0.80119049    -0.33000
H405        H  0.47887637  0.17630578  0.80657025     0.28400
H406        H  0.05116573  0.06938622  0.72127779     0.28400
H407        H  0.02634385  0.15270723  0.71328361     0.18900
H408        H  0.46694980  0.09082926  0.78638931     0.19000
C409        C  0.09098058  0.49849895  0.00062936    -0.06900
C410        C  0.10597909  0.01605387  0.97855045    -0.18000
C411        C  0.13764283  0.01720775  0.97774111     0.10300
C412        C  0.15483604  0.50011679  0.99917112    -0.06800
C413        C  0.13938156  0.48132825  0.51893276    -0.18000
C414        C  0.10772447  0.48030680  0.51987272     0.10400
S415        S  0.15615524  0.04003663  0.94952078    -0.33000
S416        S  0.09045692  0.45398467  0.54562364    -0.33000
H417        H  0.06662647  0.44593655  0.52613618     0.28400
H418        H  0.12986319  0.05054842  0.93514530     0.28400
H419        H  0.09301767  0.02963787  0.96294317     0.18900
H420        H  0.15224375  0.46713865  0.53413019     0.19000
C421        C  0.34112298  0.50298743  0.49556500    -0.06900
C422        C  0.35588567  0.02398408  0.51504061    -0.18000
C423        C  0.38750058  0.02530183  0.51599991     0.10300
C424        C  0.40466166  0.00540347  0.49777782    -0.08600
C425        C  0.39010141  0.48574689  0.97852754    -0.18000
C426        C  0.35850549  0.48467732  0.97711269     0.10400
S427        S  0.40449645  0.05359911  0.54004999    -0.33000
S428        S  0.34177943  0.45968205  0.94947630    -0.33000
H429        H  0.31813566  0.47939710  0.94165494     0.28400
H430        H  0.42861886  0.06009862  0.52042107     0.28400
H431        H  0.34294274  0.03909131  0.52942163     0.18900
H432        H  0.40313155  0.47103675  0.96382765     0.19000
C433        C  0.99300193  0.40947250  0.00061783    -0.06900
C434        C  0.00986019  0.39474592  0.52369991    -0.18000
C435        C  0.01071587  0.36313975  0.52448585     0.10300
C436        C  0.99373202  0.34555354  0.00209990    -0.06800
C437        C  0.48328497  0.36040457  0.97808139    -0.18000
C438        C  0.48124620  0.39199661  0.97732351     0.10400
S439        S  0.03217757  0.34582814  0.55440233    -0.33000
S440        S  0.45762425  0.40833875  0.94853672    -0.33000
H441        H  0.44546274  0.43083869  0.96750555     0.28400
H442        H  0.01229997  0.32138736  0.55855519     0.28400
H443        H  0.02287632  0.40744936  0.54015131     0.18900
H444        H  0.47144325  0.34717207  0.96115005     0.19000
C445        C  0.50403720  0.15975765  0.50321343    -0.06900
C446        C  0.01920956  0.14437569  0.98188301    -0.18000
C447        C  0.02055848  0.11274211  0.98116789     0.10300
C448        C  0.50252921  0.09592761  0.50103832    -0.06800
C449        C  0.48570816  0.11187896  0.52277926    -0.18000
C450        C  0.48643893  0.14348843  0.52422056     0.10400
S451        S  0.04698187  0.09549494  0.95533631    -0.33000
S452        S  0.46520350  0.16169375  0.55393937    -0.33000
H453        H  0.48604881  0.18525376  0.55876708     0.28400
H454        H  0.05522475  0.07198270  0.97495115     0.28400
H455        H  0.03304427  0.15722113  0.96634090     0.18900
H456        H  0.47182360  0.09963939  0.53875590     0.19000
O457        O  0.49931822  0.54824908  0.47432290    -0.73700
O458        O  0.49697838  0.95746222  0.47383611    -0.74700
O459        O  0.45273956  0.00390950  0.47373515    -0.63300
O460        O  0.04288665  0.50076850  0.47581199    -0.71700
O461        O  0.04310526  0.50004966  0.02586979    -0.71300
O462        O  0.45224013  0.00446673  0.02431980    -0.62500
O463        O  0.99464505  0.95755551  0.02499118    -0.75000
O464        O  0.00016743  0.54798405  0.02562049    -0.73800
Cu465      Cu  0.49808455  0.00296691  0.47259489     1.04600
Cu466      Cu  0.99762374  0.50273894  0.02712340     1.04300
C467        C  0.50114323  0.56258662  0.00070766     0.92500
C468        C  0.99383374  0.94306493  0.99996412     0.91600
C469        C  0.43853058  0.50481357  0.99926268     0.83800
C470        C  0.05722005  0.99917295  0.00002991     0.90100
O471        O  0.04584491  0.00186914  0.27584263    -0.73700
O472        O  0.45473149  0.99336903  0.27530438    -0.74700
O473        O  0.50124227  0.94915038  0.27450779    -0.63300
O474        O  0.99938131  0.54461236  0.27581966    -0.71700
O475        O  0.99800327  0.54334851  0.22574283    -0.71300
O476        O  0.50098593  0.94864096  0.22440203    -0.62500
O477        O  0.45581300  0.49039885  0.22507615    -0.75000
O478        O  0.04599442  0.50074826  0.22518441    -0.73800
Cu479      Cu  0.50004536  0.99463260  0.27625037     1.04600
Cu480      Cu  0.00067279  0.49797368  0.22460005     1.04300
C481        C  0.05970578  0.00211546  0.25050005     0.92500
C482        C  0.44173540  0.49028327  0.25030274     0.91600
C483        C  0.00293345  0.93917693  0.25287758     0.83800
C484        C  0.49840040  0.55400671  0.24857406     0.90100
O485        O  0.47734490  0.75379402  0.04509231    -0.73700
O486        O  0.47599629  0.75013447  0.45555648    -0.74700
O487        O  0.47677966  0.70693636  0.50266118    -0.63300
O488        O  0.47732956  0.79730524  0.99808456    -0.71700
O489        O  0.02049908  0.79894031  0.00175669    -0.71300
O490        O  0.02336735  0.70845221  0.50037126    -0.62500
O491        O  0.02285765  0.75400834  0.45573503    -0.75000
O492        O  0.02109965  0.75330948  0.04654872    -0.73800
Cu493      Cu  0.47436022  0.75220097  0.50084922     1.04600
Cu494      Cu  0.02406813  0.75359616  0.00124970     1.04300
C495        C  0.50198736  0.75370153  0.06012471     0.92500
C496        C  0.50093716  0.75024372  0.44101912     0.91600
C497        C  0.50500048  0.69313140  0.00203866     0.83800
C498        C  0.50012552  0.81228166  0.50007483     0.90100
O499        O  0.02473683  0.79337543  0.25102544    -0.73700
O500        O  0.02137837  0.70275266  0.24985118    -0.74700
O501        O  0.02207293  0.74829794  0.20513632    -0.63300
O502        O  0.02378504  0.74804322  0.29571677    -0.71700
O503        O  0.47607482  0.74520360  0.29605123    -0.71300
O504        O  0.47560162  0.74497237  0.20507355    -0.62500
O505        O  0.47452790  0.69953693  0.25071791    -0.75000
O506        O  0.47669385  0.79022088  0.25100562    -0.73800
Cu507      Cu  0.02470773  0.74801984  0.25035680     1.04600
Cu508      Cu  0.47395711  0.74496159  0.25066991     1.04300
C509        C  0.50204917  0.80404127  0.25104394     0.92500
C510        C  0.49927888  0.68471052  0.25028217     0.91600
C511        C  0.50066545  0.74458488  0.19064519     0.83800
C512        C  0.50133503  0.74535004  0.31007998     0.90100
O513        O  0.24609651  0.97749187  0.45269269    -0.73700
O514        O  0.24984188  0.97605879  0.04291555    -0.74700
O515        O  0.20276307  0.97560601  0.99913591    -0.63300
O516        O  0.29341476  0.97735684  0.49585875    -0.71700
O517        O  0.29300884  0.52719448  0.49798446    -0.71300
O518        O  0.20226345  0.52580250  0.99886265    -0.62500
O519        O  0.24799716  0.52563268  0.04389966    -0.75000
O520        O  0.24743274  0.52709771  0.45305429    -0.73800
Cu521      Cu  0.24829818  0.97484723  0.99773275     1.04600
Cu522      Cu  0.24758136  0.52829778  0.49828253     1.04300
C523        C  0.24611728  0.00277444  0.43883588     0.92500
C524        C  0.24939599  0.00093745  0.05769303     0.91600
C525        C  0.18791820  0.00060669  0.49974820     0.83800
C526        C  0.30755807  0.00279908  0.99708349     0.90100
O527        O  0.29823335  0.51951621  0.24876061    -0.73700
O528        O  0.20735165  0.52519248  0.24750851    -0.74700
O529        O  0.25247522  0.52321555  0.29298952    -0.63300
O530        O  0.25314586  0.52149072  0.20266503    -0.71700
O531        O  0.24973628  0.97299510  0.20353647    -0.71300
O532        O  0.24704775  0.97477479  0.29376399    -0.62500
O533        O  0.20317180  0.97667921  0.24698160    -0.75000
O534        O  0.29371730  0.97097989  0.25001710    -0.73800
Cu535      Cu  0.25292098  0.52410014  0.24790817     1.04600
Cu536      Cu  0.24829470  0.97214276  0.24860787     1.04300
C537        C  0.30946129  0.99519720  0.25047798     0.92500
C538        C  0.19023700  0.00248406  0.24663439     0.91600
C539        C  0.24901710  0.99988935  0.30796708     0.83800
C540        C  0.25080853  0.99765460  0.18878662     0.90100
C541        C  0.24634137  0.00294781  0.40529815    -0.06900
C542        C  0.25760480  0.97726314  0.39030440    -0.18000
C543        C  0.25971181  0.97597935  0.35886685     0.10300
C544        C  0.24911019  0.00045561  0.34141641    -0.06800
C545        C  0.23938490  0.52501038  0.35557211    -0.18000
C546        C  0.23773058  0.52693429  0.38715672     0.10400
S547        S  0.27789854  0.94318587  0.34280004    -0.33000
S548        S  0.22190600  0.56068711  0.40407964    -0.33000
H549        H  0.21721052  0.57692530  0.37725386     0.28400
H550        H  0.29523427  0.95984090  0.32202933     0.28400
H551        H  0.26593975  0.95827200  0.40322869     0.18900
H552        H  0.23114007  0.54358634  0.34207230     0.19000
C553        C  0.25097794  0.00036887  0.09117339    -0.06900
C554        C  0.24238229  0.97374992  0.10606463    -0.18000
C555        C  0.24225479  0.97179143  0.13767586     0.10300
C556        C  0.25085582  0.99735506  0.15517366    -0.06800
C557        C  0.26250084  0.52198370  0.13999156    -0.18000
C558        C  0.26320046  0.52370407  0.10852049     0.10400
S559        S  0.23003160  0.93670641  0.15469291    -0.33000
S560        S  0.28065332  0.55675044  0.09240530    -0.33000
H561        H  0.29707931  0.54039017  0.07056622     0.28400
H562        H  0.22387788  0.92067852  0.12787809     0.28400
H563        H  0.23522179  0.95443412  0.09280009     0.18900
H564        H  0.27140203  0.54084539  0.15297401     0.19000
C565        C  0.50093575  0.74796165  0.40755533    -0.06900
C566        C  0.02074935  0.76635964  0.39195612    -0.18000
C567        C  0.02117797  0.76700887  0.36035088     0.10300
C568        C  0.50168672  0.74702234  0.34352125    -0.06800
C569        C  0.47861524  0.73241767  0.35960998    -0.18000
C570        C  0.47825999  0.73223660  0.39123278     0.10400
S571        S  0.04892838  0.79096894  0.34264137    -0.33000
S572        S  0.44930973  0.70991922  0.40915260    -0.33000
H573        H  0.46877389  0.69770470  0.43108086     0.28400
H574        H  0.02933760  0.80164071  0.32005285     0.28400
H575        H  0.03721061  0.77964095  0.40436901     0.18900
H576        H  0.46120098  0.72014672  0.34744999     0.19000
C577        C  0.50076758  0.74566082  0.15716734    -0.06900
C578        C  0.47811819  0.76230676  0.14250047    -0.18000
C579        C  0.47819380  0.76599774  0.11099580     0.10300
C580        C  0.50129675  0.75238220  0.09357106    -0.06800
C581        C  0.01818908  0.73655236  0.10867970    -0.18000
C582        C  0.01867549  0.73396045  0.14012974     0.10400
S583        S  0.44973363  0.78957333  0.09371236    -0.33000
S584        S  0.04765530  0.71033700  0.15616616    -0.33000
H585        H  0.02842315  0.69712541  0.17769241     0.28400
H586        H  0.43574407  0.79933157  0.12056454     0.28400
H587        H  0.46071386  0.77312094  0.15591123     0.18900
H588        H  0.03550630  0.72514894  0.09559183     0.19000
C589        C  0.09310351  0.00358892  0.24938511    -0.06900
C590        C  0.10821480  0.98517851  0.22836914    -0.18000
C591        C  0.13974532  0.98533530  0.22614987     0.10300
C592        C  0.15689828  0.00408007  0.24559152    -0.06800
C593        C  0.14332192  0.52126366  0.26692011    -0.18000
C594        C  0.11157883  0.52185033  0.26861412     0.10400
S595        S  0.15664088  0.96190215  0.19730927    -0.33000
S596        S  0.09337094  0.54684476  0.29539929    -0.33000
H597        H  0.11986199  0.55980393  0.30735393     0.28400
H598        H  0.18044632  0.98194569  0.19079216     0.28400
H599        H  0.09534376  0.97044196  0.21355992     0.18900
H600        H  0.15660202  0.53477826  0.28241666     0.19000
C601        C  0.40663330  0.99106803  0.25134298    -0.06900
C602        C  0.39288949  0.50744082  0.27176057    -0.18000
C603        C  0.36127667  0.50874864  0.27232731     0.10300
C604        C  0.34277868  0.99330245  0.25221449    -0.06800
C605        C  0.35794679  0.97244426  0.23364288    -0.18000
C606        C  0.38958916  0.97094677  0.23319171     0.10400
S607        S  0.34393354  0.53206811  0.30099621    -0.33000
S608        S  0.40678538  0.94227263  0.20977758    -0.33000
H609        H  0.43089491  0.93629597  0.22958999     0.28400
H610        H  0.31915048  0.51279194  0.30593634     0.28400
H611        H  0.40560247  0.52120683  0.28756392     0.18900
H612        H  0.34507054  0.95737804  0.21918595     0.19000
C613        C  0.00160125  0.84193973  0.25422755    -0.06900
C614        C  0.02381252  0.85721138  0.23750293    -0.18000
C615        C  0.02490417  0.88883820  0.23685928     0.10300
C616        C  0.00362407  0.90582111  0.25353342    -0.06800
C617        C  0.48543086  0.88576936  0.27131012    -0.18000
C618        C  0.48521459  0.85419924  0.27261307     0.10400
S619        S  0.05498388  0.90641369  0.21593883    -0.33000
S620        S  0.46288777  0.83688426  0.30192484    -0.33000
H621        H  0.48268308  0.81261736  0.30700723     0.28400
H622        H  0.03522966  0.91956445  0.19489580     0.28400
H623        H  0.04006167  0.84445238  0.22431793     0.18900
H624        H  0.47177346  0.89847473  0.28723407     0.19000
C625        C  0.49862751  0.65137007  0.25029801    -0.06900
C626        C  0.01277159  0.64029761  0.22923032    -0.18000
C627        C  0.01416437  0.60871731  0.22862393     0.10300
C628        C  0.49847689  0.58747256  0.24821706    -0.06800
C629        C  0.48188037  0.60310307  0.27037932    -0.18000
C630        C  0.48192104  0.63474317  0.27175749     0.10400
S631        S  0.03887607  0.59160689  0.20106251    -0.33000
S632        S  0.46129344  0.65246232  0.30219063    -0.33000
H633        H  0.48203053  0.67615878  0.30676211     0.28400
H634        H  0.05061228  0.56989182  0.22099786     0.28400
H635        H  0.02567784  0.65301570  0.21282785     0.18900
H636        H  0.46901203  0.59058409  0.28693736     0.19000
C637        C  0.09069889  0.99882730  0.50143992    -0.06900
C638        C  0.10602781  0.51727112  0.47953921    -0.18000
C639        C  0.13769738  0.51833927  0.47861525     0.10300
C640        C  0.15452592  0.00023638  0.49985553    -0.06800
C641        C  0.13929398  0.98105265  0.01881618    -0.18000
C642        C  0.10763489  0.97989718  0.01961408     0.10400
S643        S  0.15616006  0.54170335  0.45078126    -0.33000
S644        S  0.09037634  0.95398988  0.04578629    -0.33000
H645        H  0.06673310  0.94538700  0.02629792     0.28400
H646        H  0.12982885  0.55329128  0.43733632     0.28400
H647        H  0.09303350  0.53115488  0.46422562     0.18900
H648        H  0.15215053  0.96724146  0.03435942     0.19000
C649        C  0.34101536  0.00355643  0.99639657    -0.06900
C650        C  0.35620804  0.52348692  0.01602491    -0.18000
C651        C  0.38783033  0.52479231  0.01718631     0.10300
C652        C  0.40510742  0.50538869  0.99852649    -0.08600
C653        C  0.38957333  0.98536035  0.47825575    -0.18000
C654        C  0.35797153  0.98430949  0.47698638     0.10400
S655        S  0.40466362  0.55244893  0.04208340    -0.33000
S656        S  0.34110736  0.95881303  0.44989599    -0.33000
H657        H  0.31753647  0.97847365  0.44172391     0.28400
H658        H  0.42877238  0.55966134  0.02268518     0.28400
H659        H  0.34317582  0.53824546  0.03067643     0.18900
H660        H  0.40254185  0.97031566  0.46383683     0.19000
C661        C  0.99303199  0.91009334  0.50070760    -0.06900
C662        C  0.00872629  0.89420756  0.02269396    -0.18000
C663        C  0.00932181  0.86260684  0.02369249     0.10300
C664        C  0.99421385  0.84616168  0.50187554    -0.06800
C665        C  0.48269475  0.86036815  0.47765269    -0.18000
C666        C  0.48083273  0.89196532  0.47673950     0.10400
S667        S  0.02963088  0.84527643  0.05438779    -0.33000
S668        S  0.45768932  0.90830130  0.44756610    -0.33000
H669        H  0.44527208  0.93082898  0.46633227     0.28400
H670        H  0.00919614  0.82121880  0.05819361     0.28400
H671        H  0.02126713  0.90689131  0.03951852     0.18900
H672        H  0.47103447  0.84712482  0.46060676     0.19000
C673        C  0.50540959  0.65985490  0.00327280    -0.06900
C674        C  0.01889384  0.64480037  0.48172762    -0.18000
C675        C  0.02023477  0.61316133  0.48118651     0.10300
C676        C  0.50364064  0.59599752  0.00135975    -0.06800
C677        C  0.48778973  0.61207912  0.02372703    -0.18000
C678        C  0.48867879  0.64368646  0.02504671     0.10400
S679        S  0.04686769  0.59577223  0.45567079    -0.33000
S680        S  0.46868653  0.66205784  0.05551858    -0.33000
H681        H  0.48966369  0.68568598  0.05928167     0.28400
H682        H  0.05498419  0.57242389  0.47552468     0.28400
H683        H  0.03290929  0.65756182  0.46627439     0.18900
H684        H  0.47446547  0.59994227  0.04026909     0.19000
O685        O  0.49998205  0.54845637  0.97547218    -0.73700
O686        O  0.49726228  0.95751133  0.97403587    -0.74700
O687        O  0.45288244  0.00379170  0.97417746    -0.63300
O688        O  0.04340092  0.50044913  0.97575284    -0.71700
O689        O  0.04309410  0.50085386  0.52593366    -0.71300
O690        O  0.45200529  0.00451369  0.52386383    -0.62500
O691        O  0.99468322  0.95795620  0.52565840    -0.75000
O692        O  0.00000950  0.54875131  0.52579166    -0.73800
Cu693      Cu  0.49819416  0.00295507  0.97289430     1.04600
Cu694      Cu  0.99758862  0.50353245  0.52772995     1.04300
C695        C  0.50007825  0.56235695  0.49959371     0.92500
C696        C  0.99428193  0.94358178  0.50055170     0.91600
C697        C  0.43838017  0.50407298  0.49796833     0.83800
C698        C  0.05730416  0.99988159  0.50165946     0.90100
O699        O  0.04710704  0.00105805  0.77519162    -0.73700
O700        O  0.45644782  0.99250141  0.77590804    -0.74700
O701        O  0.50498043  0.95022794  0.77588734    -0.63300
O702        O  0.99784996  0.54439809  0.77558175    -0.71700
O703        O  0.99700138  0.54261002  0.72548032    -0.71300
O704        O  0.50475145  0.94898552  0.72578377    -0.62500
O705        O  0.45391594  0.49277412  0.72547010    -0.75000
O706        O  0.04459879  0.49974487  0.72576881    -0.73800
Cu707      Cu  0.50176960  0.99562353  0.77690089     1.04600
Cu708      Cu  0.99938373  0.49715454  0.72500062     1.04300
C709        C  0.06099767  0.00135828  0.74988428     0.92500
C710        C  0.43996293  0.49278203  0.75076568     0.91600
C711        C  0.00441696  0.93842043  0.75182647     0.83800
C712        C  0.49905472  0.55457885  0.74948275     0.90100
O713        O  0.47623536  0.75405287  0.54617456    -0.73700
O714        O  0.48008578  0.75011032  0.95456787    -0.74700
O715        O  0.47966732  0.70690941  0.00171181    -0.63300
O716        O  0.47533423  0.79751291  0.49908841    -0.71700
O717        O  0.02062557  0.79921337  0.50200640    -0.71300
O718        O  0.02415987  0.70815795  0.00084149    -0.62500
O719        O  0.02351281  0.75341564  0.95582300    -0.75000
O720        O  0.02096422  0.75315087  0.54644065    -0.73800
Cu721      Cu  0.47689703  0.75205522  0.99976706     1.04600
Cu722      Cu  0.02371275  0.75384090  0.50113923     1.04300
C723        C  0.50134332  0.75325413  0.56039557     0.92500
C724        C  0.50544877  0.75034335  0.94076551     0.91600
C725        C  0.50199989  0.69292207  0.50195985     0.83800
C726        C  0.50188337  0.81238520  0.99969312     0.90100
O727        O  0.02603789  0.79250779  0.75011494    -0.73700
O728        O  0.02201537  0.70190193  0.74972842    -0.74700
O729        O  0.02266797  0.74700401  0.70464445    -0.63300
O730        O  0.02509392  0.74748829  0.79534549    -0.71700
O731        O  0.48189656  0.74598522  0.79634868    -0.71300
O732        O  0.47840097  0.74637037  0.70578098    -0.62500
O733        O  0.47846977  0.70051995  0.75115736    -0.75000
O734        O  0.48186242  0.79126133  0.75180033    -0.73800
Cu735      Cu  0.02568778  0.74712669  0.74988089     1.04600
Cu736      Cu  0.47842501  0.74604018  0.75126029     1.04300
C737        C  0.50738523  0.80475497  0.75098601     0.92500
C738        C  0.50302214  0.68533877  0.75051467     0.91600
C739        C  0.50288558  0.74507840  0.69051720     0.83800
C740        C  0.50741924  0.74597498  0.80984388     0.90100
O741        O  0.24707457  0.97724076  0.95254330    -0.73700
O742        O  0.25015080  0.97559378  0.54292769    -0.74700
O743        O  0.20254027  0.97570799  0.49988494    -0.63300
O744        O  0.29363353  0.97748992  0.99639868    -0.71700
O745        O  0.29300498  0.52741073  0.99857251    -0.71300
O746        O  0.20218176  0.52597333  0.49837179    -0.62500
O747        O  0.24801027  0.52598305  0.54346783    -0.75000
O748        O  0.24735075  0.52740602  0.95347575    -0.73800
Cu749      Cu  0.24803309  0.97478017  0.49780472     1.04600
Cu750      Cu  0.24758901  0.52829667  0.99876010     1.04300
C751        C  0.24728992  0.00245439  0.93855734     0.92500
C752        C  0.24992029  0.00034432  0.55790693     0.91600
C753        C  0.18798944  0.00040608  0.99856542     0.83800
C754        C  0.30734700  0.00266993  0.49669637     0.90100
O755        O  0.29634485  0.52139989  0.74908759    -0.73700
O756        O  0.20553580  0.52628319  0.74710101    -0.74700
O757        O  0.25028765  0.52452499  0.79311860    -0.63300
O758        O  0.25175918  0.52294094  0.70256884    -0.71700
O759        O  0.25098352  0.97149482  0.70348286    -0.71300
O760        O  0.24936580  0.97348803  0.79388451    -0.62500
O761        O  0.20483678  0.97485131  0.74748380    -0.75000
O762        O  0.29548994  0.96981361  0.74956452    -0.73800
Cu763      Cu  0.25107330  0.52554953  0.74790370     1.04600
Cu764      Cu  0.25005946  0.97068355  0.74864388     1.04300
C765        C  0.31114293  0.99408367  0.75005269     0.92500
C766        C  0.19173614  0.00057130  0.74700905     0.91600
C767        C  0.25115986  0.99874276  0.80789063     0.83800
C768        C  0.25191396  0.99621017  0.68878594     0.90100
C769        C  0.24815266  0.00250541  0.90506755    -0.06900
C770        C  0.26073918  0.97726869  0.89037118    -0.18000
C771        C  0.26313615  0.97587895  0.85894910     0.10300
C772        C  0.25140945  0.99965858  0.84128986    -0.06800
C773        C  0.23814912  0.52606713  0.85600226    -0.18000
C774        C  0.23699139  0.52781801  0.88763760     0.10400
S775        S  0.28304917  0.94398328  0.84313128    -0.33000
S776        S  0.22206432  0.56175932  0.90499573    -0.33000
H777        H  0.21656498  0.57796726  0.87830561     0.28400
H778        H  0.29889358  0.96114812  0.82161617     0.28400
H779        H  0.26980469  0.95877500  0.90352536     0.18900
H780        H  0.23017594  0.54495029  0.84272893     0.19000
C781        C  0.25165824  0.99944187  0.59131492    -0.06900
C782        C  0.24149925  0.97331872  0.60609381    -0.18000
C783        C  0.24146704  0.97119559  0.63768907     0.10300
C784        C  0.25174785  0.99607673  0.65521979    -0.06800
C785        C  0.26122073  0.52343349  0.63981632    -0.18000
C786        C  0.26213141  0.52496289  0.60831887     0.10400
S787        S  0.22719666  0.93691128  0.65471005    -0.33000
S788        S  0.27834983  0.55860711  0.59215680    -0.33000
H789        H  0.29586905  0.54277032  0.57077970     0.28400
H790        H  0.21958718  0.92153527  0.62788885     0.28400
H791        H  0.23303999  0.95457068  0.59274556     0.18900
H792        H  0.26917950  0.54273920  0.65273517     0.19000
C793        C  0.50636727  0.74790153  0.90732227    -0.06900
C794        C  0.02201689  0.76529851  0.89197009    -0.18000
C795        C  0.02266202  0.76600434  0.86034493     0.10300
C796        C  0.50806712  0.74709763  0.84330310    -0.06800
C797        C  0.48483484  0.73240651  0.85907385    -0.18000
C798        C  0.48402254  0.73212818  0.89063579     0.10400
S799        S  0.05079471  0.78968574  0.84286393    -0.33000
S800        S  0.45481611  0.70969437  0.90800041    -0.33000
H801        H  0.47393917  0.69748890  0.93023216     0.28400
H802        H  0.03153589  0.80057504  0.82010405     0.28400
H803        H  0.03850694  0.77843629  0.90450201     0.18900
H804        H  0.46750905  0.72023574  0.84668840     0.19000
C805        C  0.50167387  0.74587037  0.65718558    -0.06900
C806        C  0.48383979  0.76801493  0.64323672    -0.18000
C807        C  0.48354105  0.77122372  0.61168355     0.10300
C808        C  0.50146784  0.75184334  0.59371012    -0.06800
C809        C  0.01770044  0.73509754  0.60833122    -0.18000
C810        C  0.01816432  0.73214733  0.63974971     0.10400
S811        S  0.46161384  0.80111935  0.59473318    -0.33000
S812        S  0.04620074  0.70725723  0.65554254    -0.33000
H813        H  0.02668333  0.69505939  0.67741907     0.28400
H814        H  0.44998856  0.81325640  0.62175503     0.28400
H815        H  0.47072262  0.78329800  0.65721262     0.18900
H816        H  0.03465871  0.72332628  0.59505017     0.19000
C817        C  0.09444015  0.00243928  0.74899240    -0.06900
C818        C  0.10956104  0.98361308  0.72836493    -0.18000
C819        C  0.14113967  0.98325481  0.72661141     0.10300
C820        C  0.15834220  0.00203054  0.74601361    -0.06800
C821        C  0.14161425  0.52317521  0.76504173    -0.18000
C822        C  0.11000796  0.52303621  0.76736877     0.10400
S823        S  0.15803096  0.95914265  0.69837426    -0.33000
S824        S  0.09270321  0.54998499  0.79250653    -0.33000
H825        H  0.08211754  0.52747308  0.81219595     0.28400
H826        H  0.18175970  0.97912892  0.69144310     0.28400
H827        H  0.09665604  0.96891575  0.71353279     0.18900
H828        H  0.15457514  0.53830583  0.77935119     0.19000
C829        C  0.40834650  0.98936774  0.75176962    -0.06900
C830        C  0.39130971  0.51221716  0.77040628    -0.18000
C831        C  0.35970340  0.51335230  0.77110379     0.10300
C832        C  0.34446028  0.99220261  0.75181737    -0.06800
C833        C  0.35972484  0.97224214  0.73237018    -0.18000
C834        C  0.39136217  0.97047860  0.73226370     0.10400
S835        S  0.34245623  0.53923570  0.79753749    -0.33000
S836        S  0.40858051  0.94305351  0.70742020    -0.33000
H837        H  0.43228244  0.93562326  0.72723073     0.28400
H838        H  0.31833146  0.51995457  0.80509409     0.28400
H839        H  0.40410980  0.52755401  0.78465464     0.18900
H840        H  0.34691954  0.95807016  0.71698705     0.19000
C841        C  0.00311768  0.84117783  0.75322162    -0.06900
C842        C  0.02439589  0.85638039  0.73528556    -0.18000
C843        C  0.02542136  0.88801402  0.73448904     0.10300
C844        C  0.00510354  0.90504548  0.75231424    -0.06800
C845        C  0.49142068  0.88618634  0.77318652    -0.18000
C846        C  0.49130836  0.85458212  0.77394791     0.10400
S847        S  0.05417277  0.90552229  0.71174178    -0.33000
S848        S  0.46939127  0.83674903  0.80325102    -0.33000
H849        H  0.48953099  0.81266135  0.80783550     0.28400
H850        H  0.03313743  0.91775170  0.69137440     0.28400
H851        H  0.03990346  0.84356057  0.72128905     0.18900
H852        H  0.47763975  0.89856322  0.78925598     0.19000
C853        C  0.50197780  0.65196928  0.75100961    -0.06900
C854        C  0.01414429  0.63950956  0.73010008    -0.18000
C855        C  0.01500213  0.60791081  0.72936779     0.10300
C856        C  0.50040245  0.58803518  0.74935704    -0.06800
C857        C  0.48409355  0.60418806  0.77135306    -0.18000
C858        C  0.48484825  0.63583756  0.77253087     0.10400
S859        S  0.04122471  0.59041075  0.70349950    -0.33000
S860        S  0.46460773  0.65421013  0.80282718    -0.33000
H861        H  0.48599352  0.67734337  0.80729167     0.28400
H862        H  0.05093401  0.56817989  0.72393782     0.28400
H863        H  0.02836128  0.65206240  0.71472447     0.18900
H864        H  0.47077317  0.59205833  0.78788558     0.19000
C865        C  0.09065614  0.99800171  0.99958275    -0.06900
C866        C  0.10626926  0.51691989  0.97990599    -0.18000
C867        C  0.13791416  0.51806267  0.97904176     0.10300
C868        C  0.15455265  0.99976855  0.99832072    -0.06800
C869        C  0.13929310  0.98139849  0.52025827    -0.18000
C870        C  0.10763897  0.98044870  0.52124396     0.10400
S871        S  0.15636569  0.54146193  0.95122561    -0.33000
S872        S  0.09033868  0.95442885  0.54727746    -0.33000
H873        H  0.06663981  0.94601739  0.52777758     0.28400
H874        H  0.13005321  0.55384127  0.93846843     0.28400
H875        H  0.09328491  0.53071395  0.96449832     0.18900
H876        H  0.15216630  0.96731352  0.53555364     0.19000
C877        C  0.34077114  0.00350193  0.49595891    -0.06900
C878        C  0.35637308  0.52468963  0.51315444    -0.18000
C879        C  0.38799545  0.52592700  0.51397846     0.10300
C880        C  0.40502394  0.50471037  0.49721374    -0.08600
C881        C  0.38981172  0.98433331  0.97978867    -0.18000
C882        C  0.35822128  0.98336629  0.97845511     0.10400
S883        S  0.40522590  0.55577296  0.53589438    -0.33000
S884        S  0.34142121  0.95666862  0.95250713    -0.33000
H885        H  0.31836101  0.97627339  0.94288395     0.28400
H886        H  0.42952560  0.56049667  0.51597993     0.28400
H887        H  0.34353867  0.54084261  0.52646503     0.18900
H888        H  0.40277785  0.96854510  0.96618986     0.19000
C889        C  0.99239973  0.90959145  0.00031658    -0.06900
C890        C  0.00901552  0.89465684  0.52330656    -0.18000
C891        C  0.00959693  0.86304512  0.52424917     0.10300
C892        C  0.99367814  0.84566286  0.00154209    -0.06800
C893        C  0.48534751  0.86032921  0.97643176    -0.18000
C894        C  0.48304388  0.89188733  0.97568053     0.10400
S895        S  0.02956735  0.84562753  0.55511851    -0.33000
S896        S  0.46148019  0.90806060  0.94523983    -0.33000
H897        H  0.44711529  0.92981037  0.96353066     0.28400
H898        H  0.00923029  0.82143078  0.55854388     0.28400
H899        H  0.02127802  0.90730772  0.54036200     0.18900
H900        H  0.47506461  0.84705145  0.95853725     0.19000
C901        C  0.50235648  0.65960212  0.50269932    -0.06900
C902        C  0.01936725  0.64431151  0.98176384    -0.18000
C903        C  0.02052427  0.61266394  0.98103008     0.10300
C904        C  0.50178499  0.59575816  0.50035815    -0.06800
C905        C  0.48465432  0.61141221  0.52206281    -0.18000
C906        C  0.48494371  0.64301174  0.52361671     0.10400
S907        S  0.04637144  0.59531027  0.95469848    -0.33000
S908        S  0.46350769  0.66075388  0.55346398    -0.33000
H909        H  0.48428096  0.68430568  0.55864973     0.28400
H910        H  0.05510994  0.57200389  0.97433842     0.28400
H911        H  0.03295512  0.65708532  0.96594153     0.18900
H912        H  0.47090573  0.59893180  0.53798093     0.19000
O913        O  0.00075223  0.04883434  0.47642884    -0.73700
O914        O  0.99514974  0.45756048  0.47623004    -0.74700
O915        O  0.95245514  0.50528082  0.47570850    -0.63300
O916        O  0.54331521  0.00197211  0.47470273    -0.71700
O917        O  0.54324325  0.00055387  0.02492438    -0.71300
O918        O  0.95223854  0.50553960  0.02471210    -0.62500
O919        O  0.49641342  0.45731928  0.02443932    -0.75000
O920        O  0.49963412  0.04779791  0.02556045    -0.73800
Cu921      Cu  0.99766282  0.50298285  0.47412033     1.04600
Cu922      Cu  0.49773905  0.00249166  0.02648625     1.04300
C923        C  0.00112039  0.06239276  0.00043533     0.92500
C924        C  0.49654874  0.44303328  0.99927527     0.91600
C925        C  0.93794489  0.00671315  0.99965984     0.83800
C926        C  0.55794861  0.50079049  0.00018520     0.90100
O927        O  0.54698965  0.49826046  0.27407796    -0.73700
O928        O  0.95639752  0.49703967  0.27758724    -0.74700
O929        O  0.00391672  0.45379563  0.27698988    -0.63300
O930        O  0.49895705  0.03996509  0.27440480    -0.71700
O931        O  0.49835069  0.03936609  0.22429722    -0.71300
O932        O  0.00362437  0.45282960  0.22687920    -0.62500
O933        O  0.95442401  0.99565447  0.22736344    -0.75000
O934        O  0.54484823  0.99531312  0.22372660    -0.73800
Cu935      Cu  0.00177643  0.49930956  0.27817591     1.04600
Cu936      Cu  0.49941466  0.99389315  0.22264220     1.04300
C937        C  0.56107142  0.49911552  0.24889595     0.92500
C938        C  0.94036086  0.99584100  0.25257124     0.91600
C939        C  0.50599828  0.43475667  0.25052649     0.83800
C940        C  0.99788182  0.05844406  0.25066331     0.90100
O941        O  0.97125472  0.25259701  0.04595606    -0.73700
O942        O  0.97501581  0.25082988  0.45528389    -0.74700
O943        O  0.97559152  0.20684446  0.50170817    -0.63300
O944        O  0.97019326  0.29710008  0.99976609    -0.71700
O945        O  0.52646585  0.29845463  0.00115046    -0.71300
O946        O  0.52907512  0.20742580  0.50184427    -0.62500
O947        O  0.53068768  0.25199975  0.45615204    -0.75000
O948        O  0.52717073  0.25274192  0.04638923    -0.73800
Cu949      Cu  0.97189874  0.25203733  0.50051174     1.04600
Cu950      Cu  0.52895441  0.25288013  0.00095818     1.04300
C951        C  0.99609203  0.25263777  0.06064462     0.92500
C952        C  0.00037220  0.25157332  0.44148965     0.91600
C953        C  0.99899216  0.19290193  0.00145311     0.83800
C954        C  0.99598262  0.31286916  0.50144323     0.90100
O955        O  0.53223804  0.28907264  0.24910318    -0.73700
O956        O  0.52884473  0.19813765  0.24939865    -0.74700
O957        O  0.52859529  0.24315346  0.20400927    -0.63300
O958        O  0.53252465  0.24407911  0.29474946    -0.71700
O959        O  0.97649863  0.24975379  0.29703960    -0.71300
O960        O  0.97387508  0.24911642  0.20646774    -0.62500
O961        O  0.97363424  0.20405581  0.25206905    -0.75000
O962        O  0.97696742  0.29485465  0.25205573    -0.73800
Cu963      Cu  0.53230693  0.24350646  0.24921086     1.04600
Cu964      Cu  0.97349902  0.24951378  0.25189211     1.04300
C965        C  0.00250530  0.30839518  0.25186614     0.92500
C966        C  0.99828405  0.18904342  0.25141003     0.91600
C967        C  0.99847674  0.24787085  0.19137807     0.83800
C968        C  0.00191165  0.24957184  0.31072488     0.90100
O969        O  0.74844502  0.48123087  0.45400775    -0.73700
O970        O  0.74999539  0.47982380  0.04432053    -0.74700
O971        O  0.70334987  0.47918364  0.00035488    -0.63300
O972        O  0.79377567  0.48108849  0.49856005    -0.71700
O973        O  0.79266924  0.03162032  0.49966596    -0.71300
O974        O  0.70164560  0.02859911  0.99939964    -0.62500
O975        O  0.74636778  0.02874453  0.04533824    -0.75000
O976        O  0.74734579  0.03054362  0.45432006    -0.73800
Cu977      Cu  0.74882066  0.47851151  0.99933307     1.04600
Cu978      Cu  0.74721308  0.03203346  0.49965620     1.04300
C979        C  0.74864015  0.50652307  0.44021370     0.92500
C980        C  0.74971882  0.50468411  0.05907656     0.91600
C981        C  0.68819451  0.50312811  0.49907588     0.83800
C982        C  0.80786830  0.50667069  0.99842753     0.90100
O983        O  0.79561743  0.02240053  0.24951195    -0.73700
O984        O  0.70451719  0.02318610  0.24846271    -0.74700
O985        O  0.74994420  0.02365956  0.29394927    -0.63300
O986        O  0.75020925  0.02219518  0.20385313    -0.71700
O987        O  0.75159848  0.47521418  0.20432439    -0.71300
O988        O  0.74886447  0.47683325  0.29454258    -0.62500
O989        O  0.70503384  0.47775394  0.24766910    -0.75000
O990        O  0.79556405  0.47371885  0.25087287    -0.73800
Cu991      Cu  0.75009306  0.02460128  0.24889664     1.04600
Cu992      Cu  0.75018315  0.47416620  0.24938999     1.04300
C993        C  0.81101410  0.49811173  0.25136850     0.92500
C994        C  0.69163341  0.50330081  0.24763162     0.91600
C995        C  0.75070968  0.50183393  0.30893548     0.83800
C996        C  0.75199735  0.50004943  0.18982047     0.90100
C997        C  0.74998128  0.50652535  0.40661403    -0.06900
C998        C  0.75147834  0.47838528  0.39178274    -0.18000
C999        C  0.75279830  0.47603231  0.36038670     0.10300
C1000       C  0.75114987  0.50245955  0.34253310    -0.06800
C1001       C  0.75325101  0.02803760  0.35660570    -0.18000
C1002       C  0.75355502  0.03083707  0.38808277     0.10400
S1003       S  0.75761243  0.43848752  0.34518648    -0.33000
S1004       S  0.76010249  0.06817803  0.40314169    -0.33000
H1005       H  0.78425745  0.05880568  0.42155151     0.28400
H1006       H  0.78322985  0.44650999  0.32813062     0.28400
H1007       H  0.75226624  0.45768778  0.40473742     0.18900
H1008       H  0.75583868  0.04835184  0.34329503     0.19000
C1009       C  0.75123416  0.50388153  0.09247024    -0.06900
C1010       C  0.74129882  0.47761363  0.10714890    -0.18000
C1011       C  0.74161303  0.47524018  0.13869337     0.10300
C1012       C  0.75171704  0.50012950  0.15629563    -0.06800
C1013       C  0.75956232  0.02391488  0.14155209    -0.18000
C1014       C  0.76020085  0.02627146  0.11016309     0.10400
S1015       S  0.72804070  0.44058082  0.15553258    -0.33000
S1016       S  0.77673275  0.06012867  0.09477457    -0.33000
H1017       H  0.79429509  0.04459165  0.07321786     0.28400
H1018       H  0.72311213  0.42428287  0.12862446     0.28400
H1019       H  0.73283540  0.45890893  0.09377639     0.18900
H1020       H  0.76796503  0.04274715  0.15485729     0.19000
C1021       C  0.00125061  0.24974678  0.40806266    -0.06900
C1022       C  0.53104899  0.26108839  0.39183002    -0.18000
C1023       C  0.53200231  0.26102785  0.36016399     0.10300
C1024       C  0.00238906  0.25033661  0.34412889    -0.06800
C1025       C  0.98039311  0.23370078  0.35971357    -0.18000
C1026       C  0.97993230  0.23272569  0.39127258     0.10400
S1027       S  0.56233583  0.28169424  0.34255157    -0.33000
S1028       S  0.95267178  0.20788055  0.40852142    -0.33000
H1029       H  0.97256194  0.19737326  0.43095132     0.28400
H1030       H  0.54397332  0.29495968  0.32033168     0.28400
H1031       H  0.54851237  0.27303599  0.40421590     0.18900
H1032       H  0.96390343  0.22057443  0.34718133     0.19000
C1033       C  0.99738518  0.24739943  0.15789839    -0.06900
C1034       C  0.97401552  0.26306534  0.14329387    -0.18000
C1035       C  0.97285062  0.26515107  0.11168916     0.10300
C1036       C  0.99585380  0.25156103  0.09409985    -0.06800
C1037       C  0.51955708  0.22950728  0.10792396    -0.18000
C1038       C  0.51916312  0.22572840  0.13927353     0.10400
S1039       S  0.94293806  0.28696301  0.09460956    -0.33000
S1040       S  0.53996744  0.19432402  0.15461163    -0.33000
H1041       H  0.51902452  0.18818260  0.17768758     0.28400
H1042       H  0.92334930  0.28632584  0.11964081     0.28400
H1043       H  0.95704541  0.27453397  0.15674404     0.18900
H1044       H  0.53284450  0.21413970  0.09415665     0.19000
C1045       C  0.59446247  0.50195257  0.24831609    -0.06900
C1046       C  0.61047839  0.48636748  0.22575849    -0.18000
C1047       C  0.64202125  0.48741532  0.22438796     0.10300
C1048       C  0.65830214  0.50417202  0.24620332    -0.06800
C1049       C  0.64066243  0.02084450  0.26208687    -0.18000
C1050       C  0.60902521  0.02072836  0.26328911     0.10400
S1051       S  0.66011798  0.46750863  0.19374942    -0.33000
S1052       S  0.59057842  0.05143287  0.28267864    -0.33000
H1053       H  0.57692649  0.03248204  0.30412461     0.28400
H1054       H  0.68369510  0.48852628  0.19012635     0.28400
H1055       H  0.59833049  0.47302254  0.20911894     0.18900
H1056       H  0.65293649  0.03848645  0.27391469     0.19000
C1057       C  0.90820862  0.49383420  0.25369059    -0.06900
C1058       C  0.89121998  0.01528514  0.27108347    -0.18000
C1059       C  0.85958503  0.01634014  0.27102236     0.10300
C1060       C  0.84435012  0.49647013  0.25336697    -0.06800
C1061       C  0.85974106  0.47534154  0.23528169    -0.18000
C1062       C  0.89137053  0.47364884  0.23542422     0.10400
S1063       S  0.84169554  0.04262666  0.29660703    -0.33000
S1064       S  0.90881454  0.44467040  0.21256418    -0.33000
H1065       H  0.93274793  0.43898201  0.23267881     0.28400
H1066       H  0.81804328  0.02299964  0.30472623     0.28400
H1067       H  0.90366314  0.03092333  0.28533852     0.18900
H1068       H  0.84705160  0.46017235  0.22078040     0.19000
C1069       C  0.50869209  0.33749802  0.25256192    -0.06900
C1070       C  0.52642470  0.35317647  0.23153337    -0.18000
C1071       C  0.52669444  0.38484982  0.23082297     0.10300
C1072       C  0.50846268  0.40139895  0.25131286    -0.06800
C1073       C  0.98504197  0.39037325  0.27133945    -0.18000
C1074       C  0.98410580  0.35876855  0.27212805     0.10400
S1075       S  0.55149537  0.40268993  0.20393373    -0.33000
S1076       S  0.95822827  0.34161194  0.29844801    -0.33000
H1077       H  0.97786762  0.31809018  0.30675805     0.28400
H1078       H  0.55984661  0.42666739  0.22319894     0.28400
H1079       H  0.53995453  0.34066664  0.21536989     0.18900
H1080       H  0.96961910  0.40318052  0.28545779     0.19000
C1081       C  0.99758163  0.15567923  0.25164524    -0.06900
C1082       C  0.51919201  0.13527908  0.22969257    -0.18000
C1083       C  0.51868278  0.10365969  0.22861477     0.10300
C1084       C  0.99798463  0.09182031  0.25024844    -0.06800
C1085       C  0.97938070  0.10749687  0.27067840    -0.18000
C1086       C  0.97914232  0.13914014  0.27174795     0.10400
S1087       S  0.54294237  0.08547505  0.20133063    -0.33000
S1088       S  0.95605128  0.15695125  0.30027132    -0.33000
H1089       H  0.97694079  0.17999859  0.30700463     0.28400
H1090       H  0.55255348  0.06251942  0.22098195     0.28400
H1091       H  0.53316878  0.14743795  0.21375483     0.18900
H1092       H  0.96516154  0.09500390  0.28612912     0.19000
C1093       C  0.59107849  0.50032665  0.49891826    -0.06900
C1094       C  0.60606336  0.02066940  0.48071353    -0.18000
C1095       C  0.63769826  0.02245629  0.48038705     0.10300
C1096       C  0.65483647  0.50237388  0.49831375    -0.06800
C1097       C  0.63996592  0.48200323  0.01758102    -0.18000
C1098       C  0.60835071  0.48032991  0.01796888     0.10400
S1099       S  0.65593779  0.04870488  0.45502336    -0.33000
S1100       S  0.59119978  0.45131494  0.04075465    -0.33000
H1101       H  0.56743841  0.44516364  0.02052557     0.28400
H1102       H  0.62956454  0.06317003  0.44482823     0.28400
H1103       H  0.59305393  0.03533759  0.46627325     0.18900
H1104       H  0.65287012  0.46658536  0.03147792     0.19000
C1105       C  0.84120689  0.50737766  0.99721383    -0.06900
C1106       C  0.85638903  0.02777656  0.01739639    -0.18000
C1107       C  0.88806062  0.02833824  0.01806289     0.10300
C1108       C  0.90459940  0.00862522  0.99902720    -0.08600
C1109       C  0.88914696  0.48920859  0.47989860    -0.18000
C1110       C  0.85758255  0.48876619  0.47875764     0.10400
S1111       S  0.90597246  0.05550980  0.04270230    -0.33000
S1112       S  0.84017195  0.46476986  0.45066055    -0.33000
H1113       H  0.81692412  0.48519473  0.44349372     0.28400
H1114       H  0.92978743  0.06200326  0.02272066     0.28400
H1115       H  0.84386610  0.04253803  0.03247252     0.18900
H1116       H  0.90174709  0.47448135  0.46485223     0.19000
C1117       C  0.49782639  0.40946177  0.49846089    -0.06900
C1118       C  0.51331979  0.39464903  0.02178533    -0.18000
C1119       C  0.51516757  0.36307542  0.02265490     0.10300
C1120       C  0.50214643  0.34570376  0.49972077    -0.06800
C1121       C  0.97656605  0.36147591  0.48157364    -0.18000
C1122       C  0.97531212  0.39312506  0.48109256     0.10400
S1123       S  0.53623053  0.34650586  0.05327591    -0.33000
S1124       S  0.95019686  0.41034114  0.45413655    -0.33000
H1125       H  0.94082422  0.43366308  0.47369183     0.28400
H1126       H  0.51755944  0.32103657  0.05658167     0.28400
H1127       H  0.52511064  0.40773225  0.03885659     0.18900
H1128       H  0.96355154  0.34865419  0.46520741     0.19000
C1129       C  0.00020555  0.15960027  0.00226745    -0.06900
C1130       C  0.52142239  0.14389743  0.48196426    -0.18000
C1131       C  0.52106982  0.11227929  0.48080364     0.10300
C1132       C  0.00220809  0.09578373  0.00101742    -0.06800
C1133       C  0.98382448  0.11109994  0.02190256    -0.18000
C1134       C  0.98273592  0.14266962  0.02285108     0.10400
S1135       S  0.54581565  0.09422480  0.45393565    -0.33000
S1136       S  0.95938798  0.15994019  0.05151276    -0.33000
H1137       H  0.97930194  0.18401846  0.05759297     0.28400
H1138       H  0.55423586  0.07099175  0.47373308     0.28400
H1139       H  0.53529271  0.15624707  0.46605220     0.18900
H1140       H  0.97008429  0.09837857  0.03760867     0.19000
O1141       O  0.00035777  0.04816031  0.97524028    -0.73700
O1142       O  0.99583567  0.45712297  0.97519906    -0.74700
O1143       O  0.95300234  0.50475941  0.97457784    -0.63300
O1144       O  0.54334771  0.00197295  0.97481963    -0.71700
O1145       O  0.54303641  0.00072467  0.52482016    -0.71300
O1146       O  0.95213462  0.50627322  0.52583792    -0.62500
O1147       O  0.49678605  0.45722238  0.52346020    -0.75000
O1148       O  0.49935680  0.04796545  0.52513620    -0.73800
Cu1149     Cu  0.99823778  0.50258333  0.97352242     1.04600
Cu1150     Cu  0.49750527  0.00261537  0.52618796     1.04300
C1151       C  0.00142430  0.06297059  0.50168504     0.92500
C1152       C  0.49716108  0.44289886  0.49833754     0.91600
C1153       C  0.93811316  0.00689478  0.49984463     0.83800
C1154       C  0.55773149  0.50103112  0.49912525     0.90100
O1155       O  0.54524004  0.49663574  0.77430490    -0.73700
O1156       O  0.95464101  0.49716019  0.77763310    -0.74700
O1157       O  0.00194165  0.45376240  0.77824040    -0.63300
O1158       O  0.49863208  0.04078365  0.77441020    -0.71700
O1159       O  0.49791525  0.03948794  0.72431144    -0.71300
O1160       O  0.00209696  0.45197895  0.72810984    -0.62500
O1161       O  0.95548583  0.99472677  0.72698742    -0.75000
O1162       O  0.54637476  0.99773635  0.72435613    -0.73800
Cu1163     Cu  0.00005199  0.49925755  0.77858733     1.04600
Cu1164     Cu  0.50110504  0.99415518  0.72332864     1.04300
C1165       C  0.55928306  0.49692045  0.74911551     0.92500
C1166       C  0.94158968  0.99477092  0.75230709     0.91600
C1167       C  0.50170666  0.43506997  0.74999914     0.83800
C1168       C  0.99860204  0.05778103  0.75028027     0.90100
O1169       O  0.97233095  0.25308477  0.54585717    -0.73700
O1170       O  0.97230717  0.25035264  0.95553047    -0.74700
O1171       O  0.97343460  0.20632798  0.00172245    -0.63300
O1172       O  0.97158223  0.29750066  0.49968123    -0.71700
O1173       O  0.52831300  0.29842708  0.50138984    -0.71300
O1174       O  0.52787594  0.20746878  0.00093557    -0.62500
O1175       O  0.52717489  0.25228486  0.95548166    -0.75000
O1176       O  0.52677235  0.25320901  0.54695143    -0.73800
Cu1177     Cu  0.97005296  0.25159226  0.00068713     1.04600
Cu1178     Cu  0.53049867  0.25288161  0.50164425     1.04300
C1179       C  0.99698957  0.25380045  0.56084606     0.92500
C1180       C  0.99745828  0.25118531  0.94141404     0.91600
C1181       C  0.00119926  0.19354259  0.50217956     0.83800
C1182       C  0.99477895  0.31221168  0.00124451     0.90100
O1183       O  0.52609956  0.28952026  0.74970455    -0.73700
O1184       O  0.52329808  0.19874421  0.74951853    -0.74700
O1185       O  0.52362089  0.24396306  0.70455895    -0.63300
O1186       O  0.52600371  0.24439431  0.79503903    -0.71700
O1187       O  0.97291904  0.24891781  0.79694204    -0.71300
O1188       O  0.97229596  0.24879297  0.70626071    -0.62500
O1189       O  0.97135569  0.20330150  0.75170682    -0.75000
O1190       O  0.97406789  0.29437664  0.75227761    -0.73800
Cu1191     Cu  0.52647181  0.24405983  0.74965347     1.04600
Cu1192     Cu  0.97088221  0.24888629  0.75173492     1.04300
C1193       C  0.99955997  0.30802626  0.75290018     0.92500
C1194       C  0.99617081  0.18853400  0.75118996     0.91600
C1195       C  0.99726204  0.24816807  0.69171553     0.83800
C1196       C  0.99813166  0.24884023  0.81098519     0.90100
O1197       O  0.74805124  0.48060348  0.95438598    -0.73700
O1198       O  0.74894995  0.47806191  0.54387601    -0.74700
O1199       O  0.70307454  0.47838739  0.49918087    -0.63300
O1200       O  0.79405045  0.48130751  0.99820740    -0.71700
O1201       O  0.79234762  0.03192549  0.00080134    -0.71300
O1202       O  0.70194984  0.02911864  0.49949296    -0.62500
O1203       O  0.74733085  0.02979464  0.54488573    -0.75000
O1204       O  0.74758129  0.03143790  0.95494864    -0.73800
Cu1205     Cu  0.74854221  0.47796765  0.49887071     1.04600
Cu1206     Cu  0.74686587  0.03193930  0.00023220     1.04300
C1207       C  0.74823161  0.50557987  0.94003545     0.92500
C1208       C  0.74827790  0.50259340  0.55914186     0.91600
C1209       C  0.68853258  0.50396002  0.99995984     0.83800
C1210       C  0.80745833  0.50651602  0.49955097     0.90100
O1211       O  0.79790138  0.02363509  0.74974095    -0.73700
O1212       O  0.70686622  0.02810517  0.74870744    -0.74700
O1213       O  0.75233400  0.02677845  0.79409117    -0.63300
O1214       O  0.75261078  0.02513558  0.70385054    -0.71700
O1215       O  0.74977878  0.47121243  0.70418188    -0.71300
O1216       O  0.74886065  0.47325711  0.79468974    -0.62500
O1217       O  0.70408008  0.47263172  0.74875432    -0.75000
O1218       O  0.79472134  0.47126319  0.75006450    -0.73800
Cu1219     Cu  0.75251689  0.02767150  0.74902934     1.04600
Cu1220     Cu  0.74932903  0.47034916  0.74945985     1.04300
C1221       C  0.80946560  0.49609591  0.75052878     0.92500
C1222       C  0.68993259  0.49776270  0.74805852     0.91600
C1223       C  0.74981068  0.49846783  0.80881426     0.83800
C1224       C  0.74969661  0.49609697  0.68970635     0.90100
C1225       C  0.74941111  0.50487758  0.90642771    -0.06900
C1226       C  0.75098646  0.47646245  0.89212012    -0.18000
C1227       C  0.75226567  0.47352413  0.86074750     0.10300
C1228       C  0.75049689  0.49960822  0.84241112    -0.06800
C1229       C  0.74763173  0.03076876  0.85693115    -0.18000
C1230       C  0.74741629  0.03322445  0.88843735     0.10400
S1231       S  0.75705675  0.43573357  0.84618824    -0.33000
S1232       S  0.74413941  0.07080439  0.90389536    -0.33000
H1233       H  0.77179270  0.06883840  0.91949929     0.28400
H1234       H  0.78279230  0.44342553  0.82915759     0.28400
H1235       H  0.75186387  0.45602276  0.90547687     0.18900
H1236       H  0.74505676  0.05120948  0.84379398     0.19000
C1237       C  0.74939564  0.50115235  0.59249609    -0.06900
C1238       C  0.73892687  0.47481590  0.60672283    -0.18000
C1239       C  0.73898292  0.47202453  0.63826492     0.10300
C1240       C  0.74946405  0.49647410  0.65621377    -0.06800
C1241       C  0.76132786  0.02624961  0.64123563    -0.18000
C1242       C  0.76169780  0.02820873  0.60978086     0.10400
S1243       S  0.72460171  0.43753755  0.65473691    -0.33000
S1244       S  0.77820122  0.06178664  0.59377912    -0.33000
H1245       H  0.79546066  0.04589301  0.57223436     0.28400
H1246       H  0.71861562  0.42197351  0.62761071     0.28400
H1247       H  0.73028232  0.45643736  0.59300941     0.18900
H1248       H  0.76980631  0.04523462  0.65424721     0.19000
C1249       C  0.99782132  0.24953132  0.90807488    -0.06900
C1250       C  0.52547557  0.26153546  0.89152059    -0.18000
C1251       C  0.52572559  0.26167288  0.85987844     0.10300
C1252       C  0.99829359  0.25000539  0.84428403    -0.06800
C1253       C  0.97728067  0.23231581  0.86002718    -0.18000
C1254       C  0.97718546  0.23141217  0.89158956     0.10400
S1255       S  0.55566562  0.28254589  0.84182834    -0.33000
S1256       S  0.95145436  0.20527079  0.90926767    -0.33000
H1257       H  0.97194711  0.19615679  0.93176730     0.28400
H1258       H  0.53685803  0.29577902  0.81996129     0.28400
H1259       H  0.54324698  0.27339637  0.90355697     0.18900
H1260       H  0.96143131  0.21828091  0.84762616     0.19000
C1261       C  0.99703413  0.24825937  0.65818179    -0.06900
C1262       C  0.97286412  0.26232045  0.64321707    -0.18000
C1263       C  0.97244189  0.26519597  0.61172493     0.10300
C1264       C  0.99648572  0.25318238  0.59433528    -0.06800
C1265       C  0.52054282  0.23338891  0.60846835    -0.18000
C1266       C  0.51948216  0.22926224  0.63974298     0.10400
S1267       S  0.94136974  0.28586069  0.59551824    -0.33000
S1268       S  0.54499047  0.20185134  0.65564646    -0.33000
H1269       H  0.52417772  0.19114161  0.67709521     0.28400
H1270       H  0.95937933  0.30171003  0.57471795     0.28400
H1271       H  0.95454565  0.27215164  0.65623325     0.18900
H1272       H  0.53690443  0.22067025  0.59535854     0.19000
C1273       C  0.59257453  0.49794667  0.74873641    -0.06900
C1274       C  0.60814450  0.47567646  0.73243127    -0.18000
C1275       C  0.63973378  0.47550250  0.73116301     0.10300
C1276       C  0.65644576  0.49796139  0.74683800    -0.06800
C1277       C  0.64241785  0.02183883  0.76759629    -0.18000
C1278       C  0.61066444  0.02110151  0.76898044     0.10400
S1279       S  0.65712783  0.44694687  0.70783286    -0.33000
S1280       S  0.59128047  0.04455611  0.79632968    -0.33000
H1281       H  0.61715447  0.05796215  0.80911943     0.28400
H1282       H  0.67888932  0.46673177  0.69582970     0.28400
H1283       H  0.59557187  0.45832586  0.72047963     0.18900
H1284       H  0.65504871  0.03531433  0.78370601     0.19000
C1285       C  0.90673716  0.49355807  0.75319503    -0.06900
C1286       C  0.89277816  0.01356410  0.77226735    -0.18000
C1287       C  0.86116733  0.01489481  0.77258338     0.10300
C1288       C  0.84285615  0.49539231  0.75235065    -0.06800
C1289       C  0.85864624  0.47390593  0.73504863    -0.18000
C1290       C  0.89027930  0.47261647  0.73544885     0.10400
S1291       S  0.84371687  0.04020311  0.79943308    -0.33000
S1292       S  0.90823129  0.44313584  0.71364753    -0.33000
H1293       H  0.93196538  0.43823555  0.73420035     0.28400
H1294       H  0.81941260  0.02086676  0.80622710     0.28400
H1295       H  0.90547496  0.02851500  0.78701058     0.18900
H1296       H  0.84624858  0.45802806  0.72102735     0.19000
C1297       C  0.50232236  0.33778205  0.75203107    -0.06900
C1298       C  0.52005662  0.35308146  0.73073738    -0.18000
C1299       C  0.52041624  0.38480295  0.72952725     0.10300
C1300       C  0.50277283  0.40162004  0.75028807    -0.06800
C1301       C  0.98192315  0.39012376  0.77216015    -0.18000
C1302       C  0.98052981  0.35851724  0.77262048     0.10400
S1303       S  0.54443690  0.40340090  0.70227354    -0.33000
S1304       S  0.95304409  0.34150072  0.79735893    -0.33000
H1305       H  0.97184917  0.31762340  0.80650141     0.28400
H1306       H  0.55528981  0.37711514  0.68796136     0.28400
H1307       H  0.53328130  0.34005821  0.71475331     0.18900
H1308       H  0.96589806  0.40305636  0.78549120     0.19000
C1309       C  0.99589319  0.15515279  0.75118018    -0.06900
C1310       C  0.51457041  0.13626870  0.72893931    -0.18000
C1311       C  0.51513309  0.10467316  0.72788070     0.10300
C1312       C  0.99795052  0.09124268  0.74989311    -0.06800
C1313       C  0.98046422  0.10656251  0.77158915    -0.18000
C1314       C  0.97942391  0.13821563  0.77258939     0.10400
S1315       S  0.53995518  0.08731017  0.70057375    -0.33000
S1316       S  0.95789943  0.15558957  0.80257065    -0.33000
H1317       H  0.97828636  0.17951200  0.80748238     0.28400
H1318       H  0.55103010  0.06531882  0.72057555     0.28400
H1319       H  0.52812342  0.14884796  0.71305772     0.18900
H1320       H  0.96772068  0.09378948  0.78807105     0.19000
C1321       C  0.59131495  0.50035328  0.99998519    -0.06900
C1322       C  0.60618464  0.01902718  0.97937008    -0.18000
C1323       C  0.63782393  0.02045238  0.97870303     0.10300
C1324       C  0.65510860  0.50323054  0.99955750    -0.06800
C1325       C  0.63952115  0.48168783  0.51676790    -0.18000
C1326       C  0.60791049  0.48039814  0.51720746     0.10400
S1327       S  0.65629885  0.04476494  0.95163808    -0.33000
S1328       S  0.59047744  0.45193700  0.54044025    -0.33000
H1329       H  0.56713133  0.44541207  0.51986323     0.28400
H1330       H  0.62994426  0.05728768  0.93910466     0.28400
H1331       H  0.59318151  0.03313221  0.96432099     0.18900
H1332       H  0.65227506  0.46645436  0.53098484     0.19000
C1333       C  0.84080662  0.50741621  0.49859797    -0.06900
C1334       C  0.85642527  0.02807025  0.51630716    -0.18000
C1335       C  0.88807262  0.02882214  0.51710793     0.10300
C1336       C  0.90478731  0.00851724  0.49890564    -0.08600
C1337       C  0.88941630  0.48846860  0.97883853    -0.18000
C1338       C  0.85783218  0.48817655  0.97776128     0.10400
S1339       S  0.90574283  0.05691106  0.54089232    -0.33000
S1340       S  0.84020620  0.46357038  0.95032889    -0.33000
H1341       H  0.81684295  0.48377827  0.94293069     0.28400
H1342       H  0.92989032  0.06264537  0.52106596     0.28400
H1343       H  0.84377623  0.04336149  0.53074204     0.18900
H1344       H  0.90193369  0.47333280  0.96413516     0.19000
C1345       C  0.49666489  0.40952155  0.99928284    -0.06900
C1346       C  0.51588315  0.39494632  0.52008772    -0.18000
C1347       C  0.51820820  0.36341385  0.52098210     0.10300
C1348       C  0.50020231  0.34565590  0.00039455    -0.06800
C1349       C  0.97706367  0.36084959  0.97998294    -0.18000
C1350       C  0.97634281  0.39251078  0.97911257     0.10400
S1351       S  0.54125074  0.34733293  0.55041933    -0.33000
S1352       S  0.95285691  0.40975167  0.95074936    -0.33000
H1353       H  0.94235164  0.43301685  0.96978376     0.28400
H1354       H  0.52261596  0.32215330  0.55558339     0.28400
H1355       H  0.52831208  0.40826068  0.53647810     0.18900
H1356       H  0.96460966  0.34803336  0.96318377     0.19000
C1357       C  0.00239098  0.16023458  0.50351360    -0.06900
C1358       C  0.52079940  0.14389004  0.98229930    -0.18000
C1359       C  0.52082525  0.11226669  0.98124069     0.10300
C1360       C  0.00317248  0.09635853  0.50238019    -0.06800
C1361       C  0.98483160  0.11204539  0.52301601    -0.18000
C1362       C  0.98439142  0.14364483  0.52394286     0.10400
S1363       S  0.54569204  0.09437089  0.95434823    -0.33000
S1364       S  0.96110558  0.16141592  0.55235064    -0.33000
H1365       H  0.98124432  0.18533993  0.55829869     0.28400
H1366       H  0.55439615  0.07108711  0.97400602     0.28400
H1367       H  0.53446349  0.15634097  0.96627120     0.18900
H1368       H  0.97057642  0.09959227  0.53849532     0.19000
O1369       O  0.00011664  0.54844113  0.47566149    -0.73700
O1370       O  0.99560412  0.95791759  0.47557517    -0.74700
O1371       O  0.95287220  0.00569585  0.47507912    -0.63300
O1372       O  0.54355682  0.50211285  0.47403405    -0.71700
O1373       O  0.54355773  0.50068887  0.02522914    -0.71300
O1374       O  0.95201992  0.00591512  0.02487094    -0.62500
O1375       O  0.49607897  0.95720886  0.02408841    -0.75000
O1376       O  0.50009529  0.54804670  0.02556505    -0.73800
Cu1377     Cu  0.99811789  0.00337500  0.47416816     1.04600
Cu1378     Cu  0.49807853  0.50265810  0.02669652     1.04300
C1379       C  0.00123385  0.56234955  0.00067815     0.92500
C1380       C  0.49635990  0.94297312  0.99890072     0.91600
C1381       C  0.93834621  0.50611746  0.99939611     0.83800
C1382       C  0.55759929  0.00063462  0.99985097     0.90100
O1383       O  0.54533532  0.99613839  0.27385659    -0.73700
O1384       O  0.95489354  0.99762207  0.27747498    -0.74700
O1385       O  0.00221719  0.95408834  0.27766949    -0.63300
O1386       O  0.49886997  0.54025010  0.27388033    -0.71700
O1387       O  0.49829947  0.53905621  0.22379296    -0.71300
O1388       O  0.00216051  0.95285232  0.22755615    -0.62500
O1389       O  0.95535845  0.49502306  0.22749219    -0.75000
O1390       O  0.54652816  0.49705816  0.22401361    -0.73800
Cu1391     Cu  0.00034480  0.99959122  0.27851601     1.04600
Cu1392     Cu  0.50122700  0.49367219  0.22277947     1.04300
C1393       C  0.55936528  0.99650180  0.24866054     0.92500
C1394       C  0.94158295  0.49512506  0.25287310     0.91600
C1395       C  0.50179279  0.93456566  0.24950063     0.83800
C1396       C  0.99828118  0.55832767  0.25050319     0.90100
O1397       O  0.97102469  0.75293809  0.04537742    -0.73700
O1398       O  0.97282092  0.75124792  0.45500858    -0.74700
O1399       O  0.97321998  0.70704112  0.50105798    -0.63300
O1400       O  0.97044463  0.79708393  0.99887493    -0.71700
O1401       O  0.52739756  0.79892782  0.00121045    -0.71300
O1402       O  0.52690122  0.70747345  0.50036928    -0.62500
O1403       O  0.52602089  0.75250355  0.45520341    -0.75000
O1404       O  0.52741971  0.75352840  0.04641908    -0.73800
Cu1405     Cu  0.97012584  0.75234103  0.50013741     1.04600
Cu1406     Cu  0.53047136  0.75341683  0.00113585     1.04300
C1407       C  0.99570863  0.75322896  0.06033790     0.92500
C1408       C  0.99807110  0.75179494  0.44105324     0.91600
C1409       C  0.99960957  0.69295991  0.00152765     0.83800
C1410       C  0.99518079  0.81281506  0.50101472     0.90100
O1411       O  0.52686069  0.78930368  0.25030082    -0.73700
O1412       O  0.52468345  0.69846642  0.24966006    -0.74700
O1413       O  0.52568380  0.74410154  0.20497507    -0.63300
O1414       O  0.52616018  0.74404519  0.29540658    -0.71700
O1415       O  0.97367569  0.74963793  0.29666001    -0.71300
O1416       O  0.97201116  0.74952113  0.20599304    -0.62500
O1417       O  0.97124962  0.70400462  0.25150503    -0.75000
O1418       O  0.97465100  0.79502170  0.25200382    -0.73800
Cu1419     Cu  0.52757119  0.74386993  0.25008049     1.04600
Cu1420     Cu  0.97112604  0.74960100  0.25149298     1.04300
C1421       C  0.00021769  0.80853248  0.25236385     0.92500
C1422       C  0.99596097  0.68907150  0.25081478     0.91600
C1423       C  0.99680827  0.74862672  0.19118084     0.83800
C1424       C  0.99900808  0.74935506  0.31048759     0.90100
O1425       O  0.74818282  0.98060346  0.45415887    -0.73700
O1426       O  0.74926818  0.97878576  0.04366517    -0.74700
O1427       O  0.70315845  0.97847370  0.99924527    -0.63300
O1428       O  0.79385554  0.98150142  0.49826871    -0.71700
O1429       O  0.79252866  0.53116226  0.50127666    -0.71300
O1430       O  0.70240306  0.52928912  0.99992998    -0.62500
O1431       O  0.74792284  0.52983418  0.04515194    -0.75000
O1432       O  0.74782933  0.53114397  0.45532739    -0.73800
Cu1433     Cu  0.74861240  0.97843721  0.99863563     1.04600
Cu1434     Cu  0.74710948  0.53147739  0.50064854     1.04300
C1435       C  0.74829541  0.00556741  0.43979177     0.92500
C1436       C  0.74833420  0.00337559  0.05883585     0.91600
C1437       C  0.68815598  0.00374607  0.49943977     0.83800
C1438       C  0.80738581  0.00734639  0.99894762     0.90100
O1439       O  0.79785474  0.52380273  0.25017330    -0.73700
O1440       O  0.70680742  0.52788275  0.24889438    -0.74700
O1441       O  0.75214371  0.52666439  0.29441731    -0.63300
O1442       O  0.75270153  0.52520273  0.20413641    -0.71700
O1443       O  0.75000772  0.97218073  0.20383219    -0.71300
O1444       O  0.74935118  0.97374851  0.29426795    -0.62500
O1445       O  0.70438769  0.97309598  0.24846304    -0.75000
O1446       O  0.79505635  0.97227391  0.24955116    -0.73800
Cu1447     Cu  0.75245693  0.52765293  0.24933831     1.04600
Cu1448     Cu  0.74968274  0.97109468  0.24906060     1.04300
C1449       C  0.80967686  0.99717344  0.25022996     0.92500
C1450       C  0.69007363  0.99813691  0.24780419     0.91600
C1451       C  0.74987920  0.99885677  0.30857644     0.83800
C1452       C  0.74980746  0.99710862  0.18944555     0.90100
C1453       C  0.74959163  0.00482731  0.40621096    -0.06900
C1454       C  0.74704297  0.97655710  0.39177905    -0.18000
C1455       C  0.74811080  0.97359969  0.36040509     0.10300
C1456       C  0.75045691  0.99973699  0.34218925    -0.06800
C1457       C  0.74986757  0.53067236  0.35730381    -0.18000
C1458       C  0.74994057  0.53307672  0.38882202     0.10400
S1459       S  0.74658116  0.93560766  0.34567524    -0.33000
S1460       S  0.75040846  0.57077519  0.40435613    -0.33000
H1461       H  0.77706598  0.56572382  0.42094520     0.28400
H1462       H  0.77461804  0.93826863  0.33087144     0.28400
H1463       H  0.74453849  0.95619258  0.40503269     0.18900
H1464       H  0.74916709  0.55130095  0.34423679     0.19000
C1465       C  0.74937899  0.00208960  0.09220671    -0.06900
C1466       C  0.73922088  0.97566371  0.10647754    -0.18000
C1467       C  0.73922397  0.97295085  0.13802012     0.10300
C1468       C  0.74944286  0.99753672  0.15594696    -0.06800
C1469       C  0.76175016  0.52633372  0.14151338    -0.18000
C1470       C  0.76223888  0.52826676  0.11005497     0.10400
S1471       S  0.72521456  0.93831051  0.15450254    -0.33000
S1472       S  0.77876477  0.56184659  0.09408076    -0.33000
H1473       H  0.79602538  0.54596231  0.07253038     0.28400
H1474       H  0.71732575  0.92349977  0.12744522     0.28400
H1475       H  0.73091259  0.95711295  0.09278711     0.18900
H1476       H  0.77015852  0.54534037  0.15455365     0.19000
C1477       C  0.99863207  0.74997475  0.40768108    -0.06900
C1478       C  0.52410106  0.76241606  0.39143898    -0.18000
C1479       C  0.52458259  0.76241606  0.35982329     0.10300
C1480       C  0.99939838  0.75035258  0.34383142    -0.06800
C1481       C  0.97744193  0.73380499  0.35953980    -0.18000
C1482       C  0.97715309  0.73294864  0.39109465     0.10400
S1483       S  0.55417161  0.78390172  0.34189781    -0.33000
S1484       S  0.94992773  0.70823945  0.40860042    -0.33000
H1485       H  0.96994104  0.69770780  0.43090802     0.28400
H1486       H  0.53538383  0.79623593  0.31950098     0.28400
H1487       H  0.54154320  0.77468610  0.40355452     0.18900
H1488       H  0.96090092  0.72063342  0.34711659     0.19000
C1489       C  0.99620902  0.74850984  0.15766788    -0.06900
C1490       C  0.97307601  0.76433529  0.14282909    -0.18000
C1491       C  0.97231488  0.76655809  0.11117905     0.10300
C1492       C  0.99519440  0.75246215  0.09381711    -0.06800
C1493       C  0.52400406  0.73591957  0.10827764    -0.18000
C1494       C  0.52379305  0.73204556  0.13959320     0.10400
S1495       S  0.94308217  0.78892714  0.09356720    -0.33000
S1496       S  0.55271680  0.70813836  0.15533424    -0.33000
H1497       H  0.53327985  0.69394433  0.17604552     0.28400
H1498       H  0.92860047  0.79840706  0.12025552     0.28400
H1499       H  0.95593963  0.77563863  0.15617627     0.18900
H1500       H  0.54159048  0.72500828  0.09512754     0.19000
C1501       C  0.59266899  0.99772946  0.24828619    -0.06900
C1502       C  0.60841191  0.97566367  0.23186535    -0.18000
C1503       C  0.64001485  0.97567559  0.23067895     0.10300
C1504       C  0.65657152  0.99812820  0.24653484    -0.06800
C1505       C  0.64239362  0.52076123  0.26808470    -0.18000
C1506       C  0.61064936  0.51984978  0.26943374     0.10400
S1507       S  0.65763630  0.94736243  0.20722956    -0.33000
S1508       S  0.59121055  0.54248147  0.29743410    -0.33000
H1509       H  0.61709015  0.55423271  0.31174295     0.28400
H1510       H  0.67931960  0.96734455  0.19541298     0.28400
H1511       H  0.59596423  0.95831160  0.21977227     0.18900
H1512       H  0.65496908  0.53390014  0.28452954     0.19000
C1513       C  0.90698792  0.99458421  0.25289427    -0.06900
C1514       C  0.89278890  0.51416783  0.27259352    -0.18000
C1515       C  0.86117752  0.51550509  0.27284705     0.10300
C1516       C  0.84308668  0.99656487  0.25196915    -0.06800
C1517       C  0.85887778  0.97532302  0.23436718    -0.18000
C1518       C  0.89050695  0.97396484  0.23479429     0.10400
S1519       S  0.84370868  0.54124977  0.29926703    -0.33000
S1520       S  0.90841793  0.94478123  0.21256200    -0.33000
H1521       H  0.93206568  0.93944872  0.23310456     0.28400
H1522       H  0.81943899  0.52199491  0.30640682     0.28400
H1523       H  0.90547318  0.52936272  0.28707826     0.18900
H1524       H  0.84647630  0.95966071  0.22010892     0.19000
C1525       C  0.50267148  0.83735505  0.25180820    -0.06900
C1526       C  0.52062682  0.85264378  0.23069288    -0.18000
C1527       C  0.52083528  0.88435055  0.22933600     0.10300
C1528       C  0.50282817  0.90114563  0.24978089    -0.06800
C1529       C  0.98234150  0.89062374  0.27136921    -0.18000
C1530       C  0.98125349  0.85900314  0.27211934     0.10400
S1531       S  0.54507352  0.90297938  0.20229803    -0.33000
S1532       S  0.95432194  0.84193441  0.29741898    -0.33000
H1533       H  0.97360439  0.81840426  0.30651872     0.28400
H1534       H  0.55720333  0.87669082  0.18906747     0.28400
H1535       H  0.53413824  0.83961489  0.21494541     0.18900
H1536       H  0.96635707  0.90350504  0.28477150     0.19000
C1537       C  0.99550198  0.65569379  0.25093158    -0.06900
C1538       C  0.51525642  0.63583112  0.22820458    -0.18000
C1539       C  0.51555333  0.60421390  0.22703921     0.10300
C1540       C  0.99756355  0.59178082  0.24998654    -0.06800
C1541       C  0.98024045  0.60721362  0.27173736    -0.18000
C1542       C  0.97918565  0.63887946  0.27256187     0.10400
S1543       S  0.53946399  0.58676844  0.19898611    -0.33000
S1544       S  0.95786164  0.65642262  0.30259291    -0.33000
H1545       H  0.97823104  0.68041383  0.30723349     0.28400
H1546       H  0.55106206  0.56475692  0.21867180     0.28400
H1547       H  0.52833141  0.64842087  0.21187740     0.18900
H1548       H  0.96763577  0.59451657  0.28840129     0.19000
C1549       C  0.59087750  0.00032249  0.49961586    -0.06900
C1550       C  0.60641530  0.52034162  0.47978730    -0.18000
C1551       C  0.63806054  0.52174880  0.47939585     0.10300
C1552       C  0.65471413  0.00295953  0.49898860    -0.06800
C1553       C  0.63959909  0.98216267  0.01785557    -0.18000
C1554       C  0.60797786  0.98077187  0.01851810     0.10400
S1555       S  0.65667508  0.54733612  0.45363007    -0.33000
S1556       S  0.59080052  0.95330329  0.04312580    -0.33000
H1557       H  0.56715690  0.94575877  0.02321174     0.28400
H1558       H  0.63041871  0.56106056  0.44219568     0.28400
H1559       H  0.59351474  0.53506483  0.46527402     0.18900
H1560       H  0.65250000  0.96764033  0.03267517     0.19000
C1561       C  0.84073517  0.00831545  0.99771881    -0.06900
C1562       C  0.85681658  0.52741619  0.01632951    -0.18000
C1563       C  0.88845606  0.52803004  0.01704471     0.10300
C1564       C  0.90503208  0.50783606  0.99858981    -0.08600
C1565       C  0.88930359  0.98889727  0.47930223    -0.18000
C1566       C  0.85771964  0.98846076  0.47813413     0.10400
S1567       S  0.90628621  0.55583115  0.04104541    -0.33000
S1568       S  0.84029480  0.96352979  0.45087090    -0.33000
H1569       H  0.81694779  0.98363018  0.44313521     0.28400
H1570       H  0.93024038  0.56183406  0.02106678     0.28400
H1571       H  0.84426972  0.54261362  0.03095187     0.18900
H1572       H  0.90193044  0.97366832  0.46478831     0.19000
C1573       C  0.49605591  0.90949783  0.49883202    -0.06900
C1574       C  0.51140261  0.89458194  0.02262625    -0.18000
C1575       C  0.51326688  0.86302714  0.02357061     0.10300
C1576       C  0.49923369  0.84563134  0.50025139    -0.06800
C1577       C  0.97772688  0.86146134  0.47962725    -0.18000
C1578       C  0.97679757  0.89311654  0.47889405     0.10400
S1579       S  0.53130076  0.84626745  0.05595575    -0.33000
S1580       S  0.95357772  0.91030787  0.45028566    -0.33000
H1581       H  0.94254043  0.93332669  0.46931689     0.28400
H1582       H  0.51172101  0.82128857  0.05773288     0.28400
H1583       H  0.52169426  0.90762964  0.04067290     0.18900
H1584       H  0.96553225  0.84864551  0.46264007     0.19000
C1585       C  0.00084443  0.65964946  0.00249023    -0.06900
C1586       C  0.52007669  0.64401827  0.48149186    -0.18000
C1587       C  0.52020782  0.61239494  0.48026893     0.10300
C1588       C  0.00244640  0.59577888  0.00121385    -0.06800
C1589       C  0.98455708  0.61122466  0.02244753    -0.18000
C1590       C  0.98369857  0.64281857  0.02342319     0.10400
S1591       S  0.54539332  0.59471360  0.45354243    -0.33000
S1592       S  0.96104107  0.66027479  0.05252478    -0.33000
H1593       H  0.98098772  0.68448924  0.05789602     0.28400
H1594       H  0.55398792  0.57142464  0.47322551     0.28400
H1595       H  0.53387048  0.65658908  0.46567711     0.18900
H1596       H  0.97100489  0.59858563  0.03839401     0.19000
O1597       O  0.00060301  0.54806228  0.97550636    -0.73700
O1598       O  0.99494758  0.95726596  0.97489756    -0.74700
O1599       O  0.95243735  0.00528913  0.97474100    -0.63300
O1600       O  0.54374544  0.50194700  0.97510586    -0.71700
O1601       O  0.54332751  0.50101328  0.52416469    -0.71300
O1602       O  0.95190934  0.00617554  0.52521297    -0.62500
O1603       O  0.49589288  0.95730899  0.52391120    -0.75000
O1604       O  0.49924805  0.54781273  0.52443627    -0.73800
Cu1605     Cu  0.99765859  0.00272283  0.97323857     1.04600
Cu1606     Cu  0.49784569  0.50251071  0.52558835     1.04300
C1607       C  0.00081791  0.56290773  0.50072256     0.92500
C1608       C  0.49606159  0.94300920  0.49876012     0.91600
C1609       C  0.93800500  0.50673083  0.50064674     0.83800
C1610       C  0.55748451  0.00081426  0.49980035     0.90100
O1611       O  0.54707301  0.99907809  0.77442568    -0.73700
O1612       O  0.95631017  0.99655534  0.77708735    -0.74700
O1613       O  0.00371607  0.95320507  0.77670606    -0.63300
O1614       O  0.49895380  0.54058345  0.77466902    -0.71700
O1615       O  0.49835166  0.53985992  0.72457013    -0.71300
O1616       O  0.00355514  0.95224129  0.72659735    -0.62500
O1617       O  0.95410532  0.49446922  0.72754822    -0.75000
O1618       O  0.54479031  0.49575548  0.72417214    -0.73800
Cu1619     Cu  0.00168811  0.99871369  0.77789117     1.04600
Cu1620     Cu  0.49939134  0.49438507  0.72302306     1.04300
C1621       C  0.56102443  0.99988402  0.74916376     0.92500
C1622       C  0.94008751  0.49494337  0.75277872     0.91600
C1623       C  0.50621341  0.93532620  0.75109742     0.83800
C1624       C  0.99709060  0.55781465  0.75011645     0.90100
O1625       O  0.97087689  0.75320460  0.54542623    -0.73700
O1626       O  0.97352380  0.75015367  0.95481994    -0.74700
O1627       O  0.97402190  0.70632941  0.00140161    -0.63300
O1628       O  0.97053786  0.79782129  0.49936209    -0.71700
O1629       O  0.52546921  0.79844775  0.50098300    -0.71300
O1630       O  0.52984275  0.70787548  0.00118442    -0.62500
O1631       O  0.53008193  0.75276904  0.95567561    -0.75000
O1632       O  0.52638019  0.75258596  0.54601460    -0.73800
Cu1633     Cu  0.97051332  0.75160570  0.00002300     1.04600
Cu1634     Cu  0.52797066  0.75288874  0.50061130     1.04300
C1635       C  0.99560688  0.75307449  0.56029153     0.92500
C1636       C  0.99885057  0.75090315  0.94098189     0.91600
C1637       C  0.99869584  0.69345797  0.50102393     0.83800
C1638       C  0.99493485  0.81231302  0.00061882     0.90100
O1639       O  0.53192434  0.78966187  0.74896809    -0.73700
O1640       O  0.52857596  0.69876465  0.74930197    -0.74700
O1641       O  0.52846215  0.74371573  0.70384100    -0.63300
O1642       O  0.53195686  0.74477315  0.79463700    -0.71700
O1643       O  0.97500094  0.74917830  0.79652521    -0.71300
O1644       O  0.97262386  0.74892265  0.70595550    -0.62500
O1645       O  0.97190787  0.70360669  0.75137224    -0.75000
O1646       O  0.97596636  0.79445114  0.75172758    -0.73800
Cu1647     Cu  0.53198856  0.74412396  0.74908595     1.04600
Cu1648     Cu  0.97212392  0.74911657  0.75137827     1.04300
C1649       C  0.00161063  0.80779919  0.75161637     0.92500
C1650       C  0.99647404  0.68844975  0.75067154     0.91600
C1651       C  0.99726490  0.74758431  0.69093817     0.83800
C1652       C  0.00038635  0.74881100  0.81025420     0.90100
O1653       O  0.74821508  0.98152054  0.95371073    -0.73700
O1654       O  0.74948071  0.97978711  0.54407472    -0.74700
O1655       O  0.70306259  0.97901535  0.49983325    -0.63300
O1656       O  0.79381038  0.98186182  0.99802273    -0.71700
O1657       O  0.79308636  0.53143148  0.99979056    -0.71300
O1658       O  0.70193181  0.52851373  0.49976840    -0.62500
O1659       O  0.74656808  0.52804584  0.54575274    -0.75000
O1660       O  0.74765395  0.53052799  0.95461739    -0.73800
Cu1661     Cu  0.74860308  0.97850911  0.49909496     1.04600
Cu1662     Cu  0.74766445  0.53203627  0.99993632     1.04300
C1663       C  0.74834585  0.00679791  0.93987659     0.92500
C1664       C  0.74912446  0.00464661  0.55882191     0.91600
C1665       C  0.68809727  0.00309385  0.99901481     0.83800
C1666       C  0.80757501  0.00692320  0.49845572     0.90100
O1667       O  0.79554623  0.52138374  0.74954547    -0.73700
O1668       O  0.70452792  0.52272184  0.74865801    -0.74700
O1669       O  0.75006862  0.52316438  0.79402002    -0.63300
O1670       O  0.75012799  0.52123077  0.70401761    -0.71700
O1671       O  0.75127285  0.97515407  0.70410851    -0.71300
O1672       O  0.74886469  0.97693363  0.79439279    -0.62500
O1673       O  0.70488206  0.97798452  0.74764781    -0.75000
O1674       O  0.79544036  0.97355673  0.75051167    -0.73800
Cu1675     Cu  0.75008862  0.52385573  0.74900188     1.04600
Cu1676     Cu  0.75002764  0.97418735  0.74920808     1.04300
C1677       C  0.81097586  0.99790019  0.75091413     0.92500
C1678       C  0.69158175  0.00358745  0.74754835     0.91600
C1679       C  0.75086669  0.00199360  0.80867845     0.83800
C1680       C  0.75173297  0.99997119  0.68956848     0.90100
C1681       C  0.74974759  0.00681137  0.90628629    -0.06900
C1682       C  0.75373076  0.97887741  0.89152537    -0.18000
C1683       C  0.75528150  0.97660139  0.86012437     0.10300
C1684       C  0.75133511  0.00274792  0.84224373    -0.06800
C1685       C  0.74918595  0.52807810  0.85668005    -0.18000
C1686       C  0.74929118  0.53107776  0.88813360     0.10400
S1687       S  0.76363675  0.93969482  0.84489785    -0.33000
S1688       S  0.74965967  0.56907748  0.90291588    -0.33000
H1689       H  0.77652701  0.56451951  0.91931204     0.28400
H1690       H  0.78743367  0.95027330  0.82665515     0.28400
H1691       H  0.75641712  0.95837862  0.90454936     0.18900
H1692       H  0.74842594  0.54847894  0.84325884     0.19000
C1693       C  0.75061833  0.00384747  0.59221663    -0.06900
C1694       C  0.74069376  0.97757894  0.60691040    -0.18000
C1695       C  0.74110527  0.97518744  0.63845903     0.10300
C1696       C  0.75132586  0.00004407  0.65604013    -0.06800
C1697       C  0.75998711  0.52271283  0.64185327    -0.18000
C1698       C  0.76065490  0.52510598  0.61047663     0.10400
S1699       S  0.72756907  0.94053327  0.65533795    -0.33000
S1700       S  0.77779281  0.55868088  0.59512637    -0.33000
H1701       H  0.79496740  0.54287166  0.57345401     0.28400
H1702       H  0.72174570  0.92453046  0.62843327     0.28400
H1703       H  0.73220791  0.95888640  0.59354966     0.18900
H1704       H  0.76867605  0.54139839  0.65517944     0.19000
C1705       C  0.99967175  0.74905814  0.90756343    -0.06900
C1706       C  0.52988808  0.76226734  0.89157774    -0.18000
C1707       C  0.53086030  0.76228765  0.85992473     0.10300
C1708       C  0.00082192  0.74960125  0.84364547    -0.06800
C1709       C  0.97870494  0.73312782  0.85922735    -0.18000
C1710       C  0.97823040  0.73217490  0.89078550     0.10400
S1711       S  0.56081932  0.78354376  0.84236294    -0.33000
S1712       S  0.95079433  0.70752778  0.90804048    -0.33000
H1713       H  0.97064327  0.69682475  0.93041379     0.28400
H1714       H  0.54239261  0.79613555  0.81981324     0.28400
H1715       H  0.54715461  0.77448443  0.90398838     0.18900
H1716       H  0.96213424  0.72009539  0.84669013     0.19000
C1717       C  0.99629197  0.74734126  0.65747120    -0.06900
C1718       C  0.97344421  0.76375916  0.64286792    -0.18000
C1719       C  0.97251264  0.76610838  0.61126035     0.10300
C1720       C  0.99513035  0.75182678  0.59371900    -0.06800
C1721       C  0.51920247  0.72966566  0.60767222    -0.18000
C1722       C  0.51905567  0.72611193  0.63905302     0.10400
S1723       S  0.94350984  0.78901936  0.59399238    -0.33000
S1724       S  0.54010031  0.69491090  0.65446338    -0.33000
H1725       H  0.51920651  0.68874045  0.67757047     0.28400
H1726       H  0.92602622  0.79358548  0.62015613     0.28400
H1727       H  0.95673387  0.77556207  0.65637695     0.18900
H1728       H  0.53247479  0.71427191  0.59391663     0.19000
C1729       C  0.59440077  0.00267938  0.74839875    -0.06900
C1730       C  0.61031066  0.98648936  0.72620223    -0.18000
C1731       C  0.64185110  0.98739381  0.72475095     0.10300
C1732       C  0.65823979  0.00459855  0.74614144    -0.06800
C1733       C  0.64071166  0.52087444  0.76228253    -0.18000
C1734       C  0.60908109  0.52095337  0.76355040     0.10400
S1735       S  0.65979644  0.96672786  0.69452683    -0.33000
S1736       S  0.59084744  0.55190873  0.78274339    -0.33000
H1737       H  0.57687765  0.53318932  0.80418683     0.28400
H1738       H  0.68333167  0.98767525  0.69028060     0.28400
H1739       H  0.59808568  0.97279043  0.70992916     0.18900
H1740       H  0.65311050  0.53851423  0.77396659     0.19000
C1741       C  0.90819058  0.99355104  0.75301410    -0.06900
C1742       C  0.89096682  0.51446551  0.77113131    -0.18000
C1743       C  0.85934312  0.51544465  0.77111948     0.10300
C1744       C  0.84431348  0.99618153  0.75282413    -0.06800
C1745       C  0.85967974  0.97537263  0.73435667    -0.18000
C1746       C  0.89131759  0.97368331  0.73442005     0.10400
S1747       S  0.84145457  0.54202272  0.79640133    -0.33000
S1748       S  0.90871868  0.94509310  0.71104825    -0.33000
H1749       H  0.93256117  0.93892965  0.73112880     0.28400
H1750       H  0.81787069  0.52243775  0.80481546     0.28400
H1751       H  0.90340018  0.53033416  0.78513916     0.18900
H1752       H  0.84695604  0.96044653  0.71961758     0.19000
C1753       C  0.50845577  0.83808647  0.75257183    -0.06900
C1754       C  0.52651361  0.85382089  0.73186147    -0.18000
C1755       C  0.52698128  0.88549208  0.73139784     0.10300
C1756       C  0.50864891  0.90198408  0.75183334    -0.06800
C1757       C  0.98472640  0.88987183  0.77119022    -0.18000
C1758       C  0.98364027  0.85827125  0.77200863     0.10400
S1759       S  0.55211758  0.90341134  0.70487101    -0.33000
S1760       S  0.95779391  0.84125469  0.79845134    -0.33000
H1761       H  0.97725286  0.81751303  0.80655041     0.28400
H1762       H  0.56019770  0.92736355  0.72427959     0.28400
H1763       H  0.54014914  0.84135313  0.71573995     0.18900
H1764       H  0.96941876  0.90275920  0.78535653     0.19000
C1765       C  0.99565152  0.65507857  0.75067393    -0.06900
C1766       C  0.51864374  0.63586845  0.72934344    -0.18000
C1767       C  0.51820020  0.60424498  0.72835661     0.10300
C1768       C  0.99664809  0.59120051  0.74939675    -0.06800
C1769       C  0.97808336  0.60676573  0.76996714    -0.18000
C1770       C  0.97752874  0.63841705  0.77095624     0.10400
S1771       S  0.54198809  0.58607198  0.70065425    -0.33000
S1772       S  0.95449455  0.65607977  0.79961928    -0.33000
H1773       H  0.97522358  0.67930963  0.80621160     0.28400
H1774       H  0.55221200  0.56334431  0.72027031     0.28400
H1775       H  0.53230655  0.64801991  0.71313092     0.18900
H1776       H  0.96418503  0.59418003  0.78562997     0.19000
C1777       C  0.59097537  0.99986018  0.99947806    -0.06900
C1778       C  0.60646208  0.52096410  0.98135312    -0.18000
C1779       C  0.63808095  0.52287979  0.98112601     0.10300
C1780       C  0.65474543  0.00206728  0.99842587    -0.06800
C1781       C  0.63954006  0.98197304  0.51726846    -0.18000
C1782       C  0.60790532  0.98042405  0.51775833     0.10400
S1783       S  0.65627352  0.54948812  0.95609977    -0.33000
S1784       S  0.59072053  0.95171530  0.54090337    -0.33000
H1785       H  0.56693552  0.94535253  0.52076380     0.28400
H1786       H  0.62986049  0.56387002  0.94588856     0.28400
H1787       H  0.59341973  0.53575775  0.96703927     0.18900
H1788       H  0.65242385  0.96668404  0.53130100     0.19000
C1789       C  0.84094013  0.00777142  0.49735114    -0.06900
C1790       C  0.85626948  0.52713565  0.51817196    -0.18000
C1791       C  0.88792253  0.52794809  0.51891900     0.10300
C1792       C  0.90465026  0.50824985  0.50004861    -0.08600
C1793       C  0.88890510  0.98992745  0.97871013    -0.18000
C1794       C  0.85733300  0.98977529  0.97762023     0.10400
S1795       S  0.90555155  0.55545133  0.54339241    -0.33000
S1796       S  0.83966442  0.96624104  0.94929309    -0.33000
H1797       H  0.81641809  0.98682429  0.94258819     0.28400
H1798       H  0.92929714  0.56206303  0.52336967     0.28400
H1799       H  0.84360284  0.54196338  0.53306773     0.18900
H1800       H  0.90135850  0.97520402  0.96353836     0.19000
C1801       C  0.49656827  0.90945077  0.99885771    -0.06900
C1802       C  0.51231363  0.89462699  0.52162640    -0.18000
C1803       C  0.51397719  0.86305289  0.52265157     0.10300
C1804       C  0.50049343  0.84566161  0.99999367    -0.06800
C1805       C  0.97669645  0.86091525  0.97962162    -0.18000
C1806       C  0.97568688  0.89257978  0.97889718     0.10400
S1807       S  0.53456840  0.84650687  0.55360918    -0.33000
S1808       S  0.95177313  0.90975517  0.95084751    -0.33000
H1809       H  0.94139851  0.93299263  0.96999887     0.28400
H1810       H  0.51611571  0.82083115  0.55645554     0.28400
H1811       H  0.52394658  0.90771135  0.53880315     0.18900
H1812       H  0.96420994  0.84806801  0.96287670     0.19000
C1813       C  0.99971313  0.66014122  0.50185979    -0.06900
C1814       C  0.52195180  0.64389407  0.98144763    -0.18000
C1815       C  0.52147875  0.61226236  0.98039988     0.10300
C1816       C  0.00173097  0.59630841  0.50098504    -0.06800
C1817       C  0.98308584  0.61173640  0.52154832    -0.18000
C1818       C  0.98197389  0.64331237  0.52230188     0.10400
S1819       S  0.54512192  0.59411409  0.95261783    -0.33000
S1820       S  0.95827655  0.66072476  0.55058471    -0.33000
H1821       H  0.97822770  0.68470151  0.55693925     0.28400
H1822       H  0.55422719  0.57090193  0.97212224     0.28400
H1823       H  0.53518324  0.65618157  0.96493773     0.18900
H1824       H  0.96919298  0.59909460  0.53718736     0.19000
loop_ 
_geom_bond_atom_site_label_1 
_geom_bond_atom_site_label_2 
_geom_bond_distance 
_geom_bond_site_symmetry_2 
_ccdc_geom_bond_type 
O1         Cu465   2.015       .  S
O1          C239   1.279       .  A
O2           Cu9   2.014       .  S
O2         C1152   1.279       .  A
O3           Cu9   2.007       .  S
O3          C697   1.277       .  A
O4        Cu1377   2.001   1_455  S
O4          C698   1.277   1_545  A
O5          Cu10   2.018   1_465  S
O5          C470   1.279       .  A
O6        Cu1378   2.019       .  S
O6          C469   1.279   1_554  A
O7         Cu466   2.008       .  S
O7           C12   1.278       .  A
O8          Cu10   2.004   1_455  S
O8          C923   1.277       .  A
Cu9         O457   2.016       .  S
Cu9        O1372   2.002       .  S
Cu9       Cu1606   2.374       .  S
Cu10       O1374   2.017       .  S
Cu10        O463   2.008   1_545  S
Cu10      Cu1605   2.373   1_554  S
C11         O229   1.279   1_554  A
C11         O920   1.277       .  A
C11         C220   1.480       .  S
C12        O1142   1.279   1_554  A
C12         C433   1.482       .  S
C13         O687   1.277       .  A
C13         O462   1.279   1_556  A
C13         C196   1.477       .  S
C14         O688   1.277   1_554  A
C14         O461   1.279       .  A
C14         C409   1.479       .  S
O15        Cu935   2.017       .  S
O15          C25   1.279       .  A
O16         Cu23   2.011       .  S
O16         C482   1.278       .  A
O17         Cu23   2.013       .  S
O17         C939   1.279       .  A
O18       Cu1391   2.005   1_645  S
O18         C940   1.277       .  A
O19         Cu24   2.013   1_545  S
O19         C940   1.279       .  A
O20       Cu1392   2.011       .  S
O20         C939   1.278       .  A
O21        Cu936   2.018       .  S
O21          C26   1.279       .  A
O22         Cu24   2.003   1_445  S
O22         C481   1.277       .  A
Cu23        O927   2.012       .  S
Cu23       O1386   2.007       .  S
Cu23      Cu1392   2.372       .  S
Cu24       O1388   2.007   1_655  S
Cu24        O933   2.010       .  S
Cu24      Cu1391   2.374   1_655  S
C25         O478   1.278       .  A
C25         C133   1.482       .  S
C26         O472   1.277       .  A
C26         C601   1.478       .  S
C27         O929   1.279       .  A
C27         O932   1.276       .  A
C27         C160   1.477       .  S
C28         O930   1.278       .  A
C28         O931   1.279       .  A
C28         C172   1.481       .  S
O29        Cu265   2.009       .  S
O29          C39   1.277       .  A
O30         Cu37   2.007       .  S
O30          C40   1.278       .  A
O31         Cu37   2.005       .  S
O31         C269   1.277       .  A
O32        Cu265   2.007   1_556  S
O32         C270   1.277   1_556  A
O33         Cu38   2.011       .  S
O33        C1182   1.278   1_455  A
O34        Cu266   2.013       .  S
O34        C1181   1.278       .  A
O35        Cu266   2.012       .  S
O35         C952   1.278       .  A
O36         Cu38   2.010       .  S
O36         C951   1.279   1_455  A
Cu37        O257   2.008       .  S
Cu37        O260   2.004       .  S
Cu37      Cu1178   2.372       .  S
Cu38        O262   2.008       .  S
Cu38        O263   2.009   1_554  S
Cu38      Cu1177   2.373   1_455  S
C39         O948   1.278       .  A
C39         C124   1.477       .  S
C40         O947   1.279       .  A
C40         C109   1.485       .  S
C41         O259   1.278       .  A
C41        O1174   1.278       .  A
C41         C217   1.475       .  S
C42         O260   1.277       .  A
C42        O1173   1.279       .  A
C42        C1120   1.477       .  S
O43         Cu51   2.008       .  S
O43         C965   1.277       .  A
O44         Cu51   2.008       .  S
O44         C966   1.278   1_455  A
O45         Cu51   2.008       .  S
O45         C967   1.278   1_455  A
O46         Cu51   2.014       .  S
O46         C968   1.278       .  A
O47         Cu52   2.004       .  S
O47          C56   1.278       .  A
O48         Cu52   2.015       .  S
O48          C55   1.278       .  A
O49         Cu52   2.013       .  S
O49          C54   1.278       .  A
O50         Cu52   2.005       .  S
O50          C53   1.277       .  A
Cu51       Cu964   2.373   1_455  S
Cu52       Cu963   2.374       .  S
C53         O955   1.278       .  A
C53        C1069   1.477       .  S
C54         O956   1.278       .  A
C54         C169   1.478       .  S
C55         O957   1.278       .  A
C55         C121   1.477       .  S
C56         O958   1.278       .  A
C56         C112   1.483       .  S
O57        Cu293   2.003       .  S
O57          C67   1.278       .  A
O58         Cu65   1.999   1_554  S
O58          C68   1.278       .  A
O59         Cu65   2.016       .  S
O59         C297   1.278       .  A
O60        Cu293   2.012       .  S
O60         C298   1.278       .  A
O61         Cu66   2.009       .  S
O61         C754   1.278       .  A
O62        Cu294   2.012       .  S
O62         C753   1.278       .  A
O63        Cu294   2.002   1_554  S
O63         C524   1.277       .  A
O64         Cu66   2.005       .  S
O64         C523   1.276       .  A
Cu65        O285   2.003       .  S
Cu65        O288   2.014       .  S
Cu65       Cu750   2.370       .  S
Cu66        O290   2.007       .  S
Cu66        O291   2.003       .  S
Cu66       Cu749   2.370   1_545  S
C67         O520   1.276       .  A
C67          C85   1.484       .  S
C68         O519   1.277       .  A
C68          C97   1.481       .  S
C69         O287   1.278       .  A
C69         O746   1.278       .  A
C69         C184   1.480       .  S
C70         O288   1.278       .  A
C70         O745   1.278       .  A
C70         C193   1.480       .  S
O71         Cu79   2.013       .  S
O71         C537   1.278   1_545  A
O72         Cu79   2.015       .  S
O72         C538   1.278       .  A
O73         Cu79   2.002       .  S
O73         C539   1.278   1_545  A
O74         Cu79   2.009       .  S
O74         C540   1.279   1_545  A
O75         Cu80   1.999       .  S
O75          C84   1.276       .  A
O76         Cu80   2.006       .  S
O76          C83   1.278       .  A
O77         Cu80   2.012       .  S
O77          C82   1.278       .  A
O78         Cu80   2.014       .  S
O78          C81   1.278       .  A
Cu79       Cu536   2.370   1_545  S
Cu80       Cu535   2.371       .  S
C81         O527   1.279       .  A
C81         C148   1.479       .  S
C82         O528   1.278       .  A
C82         C136   1.479       .  S
C83         O529   1.277       .  A
C83          C88   1.480       .  S
C84         O530   1.279       .  A
C84         C100   1.485       .  S
C85          C86   1.405       .  A
C85         C546   1.417       .  A
C86          C87   1.396       .  A
C86          H95   1.084       .  S
C87          C88   1.413       .  A
C87          S91   1.803       .  S
C88         C545   1.405       .  A
C89          C90   1.403       .  A
C89         C544   1.404       .  A
C89          H96   1.082       .  S
C90         C541   1.417       .  A
C90          S92   1.809       .  S
S91          H94   1.408       .  S
S92          H93   1.406       .  S
C97          C98   1.404       .  A
C97         C558   1.414       .  A
C98          C99   1.402       .  A
C98         H107   1.083       .  S
C99         C100   1.419       .  A
C99         S103   1.810       .  S
C100        C557   1.405       .  A
C101        C102   1.396       .  A
C101        C556   1.406   1_545  A
C101        H108   1.083       .  S
C102        C553   1.415       .  A
C102        S104   1.803       .  S
S103        H106   1.406       .  S
S104        H105   1.408       .  S
C109        C114   1.416       .  A
C109       C1022   1.406       .  A
C110        C111   1.401       .  A
C110       C1021   1.405       .  A
C110        H119   1.083       .  S
C111       C1024   1.415       .  A
C111        S115   1.803       .  S
C112        C113   1.404       .  A
C112       C1023   1.416       .  A
C113        C114   1.398       .  A
C113        H120   1.084       .  S
C114        S116   1.803       .  S
S115        H118   1.407       .  S
S116        H117   1.408       .  S
C121        C122   1.404       .  A
C121       C1038   1.412       .  A
C122        C123   1.405       .  A
C122        H131   1.083       .  S
C123        C124   1.412       .  A
C123        S127   1.807       .  S
C124       C1037   1.403       .  A
C125        C126   1.398       .  A
C125       C1036   1.404   1_455  A
C125        H132   1.085       .  S
C126       C1033   1.415   1_455  A
C126        S128   1.803       .  S
S127        H130   1.407       .  S
S128        H129   1.407       .  S
C133        C134   1.404       .  A
C133        C594   1.414       .  A
C134        C135   1.399       .  A
C134        H143   1.082       .  S
C135        C136   1.412       .  A
C135        S139   1.802       .  S
C136        C593   1.404       .  A
C137        C138   1.402       .  A
C137        C592   1.404       .  A
C137        H144   1.084       .  S
C138        C589   1.414       .  A
C138        S140   1.799       .  S
S139        H142   1.407       .  S
S140        H141   1.407       .  S
C145        C482   1.483       .  S
C145        C150   1.415       .  A
C145        C602   1.405       .  A
C146        C147   1.400       .  A
C146        C601   1.403   1_545  A
C146        H155   1.084       .  S
C147        C604   1.414   1_545  A
C147        S151   1.804       .  S
C148        C149   1.404       .  A
C148        C603   1.413       .  A
C149        C150   1.403       .  A
C149        H156   1.083       .  S
C150        S152   1.803       .  S
S151        H154   1.407       .  S
S152        H153   1.407       .  S
C157        C965   1.480       .  S
C157        C158   1.405       .  A
C157       C1074   1.415   1_455  A
C158        C159   1.401       .  A
C158        H167   1.084       .  S
C159        C160   1.412       .  A
C159        S163   1.800       .  S
C160       C1073   1.402   1_455  A
C161        C162   1.399       .  A
C161       C1072   1.403       .  A
C161        H168   1.083       .  S
C162       C1069   1.413       .  A
C162        S164   1.804       .  S
S163        H166   1.406       .  S
S164        H165   1.406       .  S
C169        C174   1.414       .  A
C169       C1082   1.402       .  A
C170        C171   1.399       .  A
C170       C1081   1.403   1_455  A
C170        H179   1.082       .  S
C171       C1084   1.413   1_455  A
C171        S175   1.803       .  S
C172        C173   1.405       .  A
C172       C1083   1.415       .  A
C173        C174   1.401       .  A
C173        H180   1.084       .  S
C174        S176   1.804       .  S
S175        H178   1.407       .  S
S176        H177   1.407       .  S
C181        C242   1.480       .  S
C181        C638   1.404       .  A
C181        C414   1.414       .  A
C182        C183   1.401       .  A
C182        C637   1.403   1_545  A
C182        H191   1.083       .  S
C183        C640   1.411       .  A
C183        S187   1.807       .  S
C184        C639   1.412       .  A
C184        C413   1.404       .  A
C185        C186   1.402       .  A
C185        C412   1.404   1_554  A
C185        H192   1.084       .  S
C186        C409   1.414       .  A
C186        S188   1.803       .  S
S187        H190   1.407       .  S
S188        H189   1.407       .  S
C193        C650   1.405   1_556  A
C193        C426   1.414       .  A
C194        C195   1.401       .  A
C194        C649   1.405   1_554  A
C194        H203   1.085       .  S
C195        C196   1.413   1_554  A
C195        S199   1.803       .  S
C196        C881   1.403   1_545  A
C197        C198   1.400       .  A
C197        C880   1.403       .  A
C197        H204   1.085       .  S
C198        C421   1.416       .  A
C198        S200   1.803       .  S
S199        H202   1.407       .  S
S200        H201   1.407       .  S
C205        C240   1.481       .  S
C205        C434   1.404   1_655  A
C205       C1122   1.415       .  A
C206        C207   1.399       .  A
C206        C433   1.405   1_455  A
C206        H215   1.083       .  S
C207        C436   1.412   1_455  A
C207        S211   1.804       .  S
C208        C954   1.477       .  S
C208        C435   1.413   1_655  A
C208       C1121   1.403       .  A
C209        C210   1.400       .  A
C209       C1120   1.404       .  A
C209        H216   1.083       .  S
C210       C1117   1.414       .  A
C210        S212   1.803       .  S
S211        H214   1.407       .  S
S212        H213   1.406       .  S
C217        C222   1.413       .  A
C217       C1358   1.402   1_554  A
C218        C219   1.402       .  A
C218       C1357   1.403       .  A
C218        H227   1.084       .  S
C219       C1360   1.415       .  A
C219        S223   1.803       .  S
C220        C221   1.404       .  A
C220       C1359   1.415   1_554  A
C221        C222   1.400       .  A
C221        H228   1.084       .  S
C222        S224   1.804       .  S
S223        H226   1.406       .  S
S224        H225   1.407       .  S
O229       Cu693   2.014       .  S
O230       Cu237   2.014       .  S
O230        C924   1.278       .  A
O231       Cu237   2.008       .  S
O231        C469   1.277       .  A
O232      Cu1605   2.005   1_455  S
O232        C470   1.277   1_546  A
O233       Cu238   2.017   1_455  S
O233        C698   1.279   1_545  A
O234      Cu1606   2.018       .  S
O234        C697   1.279       .  A
O235       Cu694   2.008       .  S
O235        C240   1.278       .  A
O236       Cu238   2.007   1_455  S
O236       C1151   1.277       .  A
Cu237       O685   2.015       .  S
Cu237      O1600   2.004       .  S
Cu237     Cu1378   2.373   1_556  S
Cu238      O1602   2.017       .  S
Cu238       O691   2.009   1_545  S
Cu238     Cu1377   2.373       .  S
C239       O1148   1.278       .  A
C239        C448   1.481       .  S
C240        O914   1.279       .  A
C241        O459   1.277       .  A
C241        O690   1.279       .  A
C241        C424   1.478       .  S
C242        O460   1.277       .  A
C242        O689   1.279       .  A
O243      Cu1163   2.021       .  S
O243        C253   1.279       .  A
O244       Cu251   2.007       .  S
O244        C710   1.277       .  A
O245       Cu251   2.016       .  S
O245       C1167   1.279       .  A
O246      Cu1619   2.009   1_645  S
O246       C1168   1.278       .  A
O247       Cu252   2.013   1_645  S
O247       C1168   1.278       .  A
O248      Cu1620   2.006       .  S
O248       C1167   1.277       .  A
O249      Cu1164   2.015       .  S
O249        C254   1.279       .  A
O250       Cu252   2.010       .  S
O250        C709   1.278   1_565  A
Cu251      O1155   2.008       .  S
Cu251      O1614   2.009       .  S
Cu251     Cu1620   2.373       .  S
Cu252      O1616   2.006       .  S
Cu252      O1161   2.015   1_455  S
Cu252     Cu1619   2.373       .  S
C253        O706   1.277       .  A
C253        C361   1.481       .  S
C254        O700   1.278       .  A
C254        C829   1.481       .  S
C255       O1157   1.278       .  A
C255       O1160   1.277       .  A
C255        C388   1.476       .  S
C256       O1158   1.277       .  A
C256       O1159   1.278       .  A
C256        C400   1.479       .  S
O257        C267   1.277       .  A
O258       Cu265   2.008   1_556  S
O258        C268   1.278       .  A
O259       Cu265   2.008       .  S
O261       Cu266   2.013       .  S
O261        C954   1.278   1_455  A
O262        C953   1.277   1_455  A
O263       C1180   1.278   1_455  A
O264       Cu266   2.008       .  S
O264       C1179   1.279   1_455  A
Cu265      Cu950   2.372       .  S
Cu266      Cu949   2.372   1_455  S
C267       O1176   1.279       .  A
C267        C352   1.480       .  S
C268       O1175   1.279       .  A
C268        C337   1.486       .  S
C269        O946   1.278       .  A
C269        C445   1.474       .  S
C270        O945   1.279       .  A
C270       C1348   1.477       .  S
O271       Cu279   2.005       .  S
O271       C1193   1.277   1_455  A
O272       Cu279   2.009       .  S
O272       C1194   1.278   1_455  A
O273       Cu279   2.003       .  S
O273       C1195   1.277   1_455  A
O274       Cu279   2.007       .  S
O274       C1196   1.278   1_455  A
O275       Cu280   2.013       .  S
O275        C284   1.279       .  A
O276       Cu280   2.023       .  S
O276        C283   1.280       .  A
O277       Cu280   2.012       .  S
O277        C282   1.278       .  A
O278       Cu280   2.007       .  S
O278        C281   1.277       .  A
Cu279     Cu1192   2.373   1_455  S
Cu280     Cu1191   2.373       .  S
C281       O1183   1.278       .  A
C281       C1297   1.476       .  S
C282       O1184   1.278       .  A
C282        C397   1.476       .  S
C283       O1185   1.277       .  A
C283        C349   1.481       .  S
C284       O1186   1.278       .  A
C284        C340   1.484       .  S
O285        C295   1.278       .  A
O286       Cu293   2.000       .  S
O286        C296   1.278       .  A
O287       Cu293   2.017       .  S
O289       Cu294   2.012       .  S
O289        C526   1.278       .  A
O290        C525   1.277       .  A
O291        C752   1.277       .  A
O292       Cu294   2.002       .  S
O292        C751   1.276       .  A
Cu293      Cu522   2.369       .  S
Cu294      Cu521   2.369   1_545  S
C295        O748   1.277       .  A
C295        C313   1.485       .  S
C296        O747   1.277       .  A
C296        C325   1.483       .  S
C297        O518   1.278       .  A
C297        C412   1.479       .  S
C298        O517   1.278       .  A
C298        C421   1.482       .  S
O299       Cu307   2.016       .  S
O299        C765   1.279   1_545  A
O300       Cu307   2.018       .  S
O300        C766   1.278       .  A
O301       Cu307   1.996       .  S
O301        C767   1.277   1_545  A
O302       Cu307   2.004       .  S
O302        C768   1.279   1_545  A
O303       Cu308   1.997       .  S
O303        C312   1.275       .  A
O304       Cu308   2.002       .  S
O304        C311   1.277       .  A
O305       Cu308   2.010       .  S
O305        C310   1.278       .  A
O306       Cu308   2.012       .  S
O306        C309   1.278       .  A
Cu307      Cu764   2.371   1_545  S
Cu308      Cu763   2.370       .  S
C309        O755   1.278       .  A
C309        C376   1.479       .  S
C310        O756   1.278       .  A
C310        C364   1.479       .  S
C311        O757   1.278       .  A
C311        C316   1.482       .  S
C312        O758   1.279       .  A
C312        C328   1.487       .  S
C313        C314   1.405       .  A
C313        C774   1.417       .  A
C314        C315   1.396       .  A
C314        H323   1.085       .  S
C315        C316   1.414       .  A
C315        S319   1.803       .  S
C316        C773   1.405       .  A
C317        C772   1.404   1_545  A
C317        C318   1.402       .  A
C317        H324   1.082       .  S
C318        C769   1.417       .  A
C318        S320   1.809       .  S
S319        H322   1.408       .  S
S320        H321   1.406       .  S
C325        C326   1.404       .  A
C325        C786   1.415       .  A
C326        C327   1.402       .  A
C326        H335   1.083       .  S
C327        C328   1.419       .  A
C327        S331   1.811       .  S
C328        C785   1.406       .  A
C329        C784   1.406   1_545  A
C329        C330   1.396       .  A
C329        H336   1.084       .  S
C330        C781   1.414   1_545  A
C330        S332   1.803       .  S
S331        H334   1.406       .  S
S332        H333   1.408       .  S
C337       C1250   1.405       .  A
C337        C342   1.417       .  A
C338       C1249   1.403   1_455  A
C338        C339   1.399       .  A
C338        H347   1.084       .  S
C339       C1252   1.414   1_455  A
C339        S343   1.804       .  S
C340       C1251   1.416       .  A
C340        C341   1.404       .  A
C341        C342   1.400       .  A
C341        H348   1.084       .  S
C342        S344   1.803       .  S
S343        H346   1.406       .  S
S344        H345   1.408       .  S
C349        C350   1.404       .  A
C349       C1266   1.414       .  A
C350        C351   1.402       .  A
C350        H359   1.084       .  S
C351        C352   1.415       .  A
C351        S355   1.803       .  S
C352       C1265   1.403       .  A
C353       C1264   1.404   1_455  A
C353        C354   1.398       .  A
C353        H360   1.085       .  S
C354       C1261   1.416   1_455  A
C354        S356   1.803       .  S
S355        H358   1.406       .  S
S356        H357   1.407       .  S
C361        C362   1.404       .  A
C361        C822   1.413       .  A
C362        C363   1.399       .  A
C362        H371   1.083       .  S
C363        C364   1.413       .  A
C363        S367   1.803       .  S
C364        C821   1.404       .  A
C365        C820   1.404       .  A
C365        C366   1.402       .  A
C365        H372   1.084       .  S
C366        C817   1.414       .  A
C366        S368   1.799       .  S
S367        H370   1.407       .  S
S368        H369   1.407       .  S
C373        C710   1.478       .  S
C373        C830   1.403       .  A
C373        C378   1.414       .  A
C374        C829   1.404   1_545  A
C374        C375   1.400       .  A
C374        H383   1.083       .  S
C375        C832   1.413   1_545  A
C375        S379   1.804       .  S
C376        C831   1.414       .  A
C376        C377   1.404       .  A
C377        C378   1.402       .  A
C377        H384   1.083       .  S
C378        S380   1.804       .  S
S379        H382   1.406       .  S
S380        H381   1.407       .  S
C385       C1193   1.481   1_455  S
C385        C386   1.406       .  A
C385       C1302   1.415   1_455  A
C386        C387   1.404       .  A
C386        H395   1.083       .  S
C387        C388   1.410       .  A
C387        S391   1.808       .  S
C388       C1301   1.402   1_455  A
C389       C1300   1.403       .  A
C389        C390   1.399       .  A
C389        H396   1.084       .  S
C390       C1297   1.413       .  A
C390        S392   1.804       .  S
S391        H394   1.407       .  S
S392        H393   1.406       .  S
C397       C1310   1.402       .  A
C397        C402   1.413       .  A
C398       C1309   1.402   1_455  A
C398        C399   1.400       .  A
C398        H407   1.083       .  S
C399       C1312   1.415   1_455  A
C399        S403   1.803       .  S
C400       C1311   1.415       .  A
C400        C401   1.405       .  A
C401        C402   1.401       .  A
C401        H408   1.082       .  S
C402        S404   1.804       .  S
S403        H406   1.407       .  S
S404        H405   1.407       .  S
C409        C866   1.403   1_554  A
C410        C865   1.404   1_545  A
C410        C411   1.402       .  A
C410        H419   1.083       .  S
C411        C868   1.412   1_545  A
C411        S415   1.806       .  S
C412        C867   1.412       .  A
C413        C414   1.402       .  A
C413        H420   1.084       .  S
C414        S416   1.803       .  S
S415        H418   1.407       .  S
S416        H417   1.407       .  S
C421        C878   1.405       .  A
C422        C877   1.405       .  A
C422        C423   1.401       .  A
C422        H431   1.085       .  S
C423        C424   1.413       .  A
C423        S427   1.803       .  S
C424        C653   1.404   1_545  A
C425        C652   1.404       .  A
C425        C426   1.400       .  A
C425        H432   1.085       .  S
C426        S428   1.804       .  S
S427        H430   1.407       .  S
S428        H429   1.407       .  S
C433       C1350   1.416   1_554  A
C434        C435   1.400       .  A
C434        H443   1.083       .  S
C435        S439   1.804       .  S
C436       C1182   1.476       .  S
C436       C1349   1.403   1_554  A
C437       C1348   1.403   1_556  A
C437        C438   1.401       .  A
C437        H444   1.084       .  S
C438       C1345   1.415       .  A
C438        S440   1.803       .  S
S439        H442   1.406       .  S
S440        H441   1.407       .  S
C445       C1130   1.401       .  A
C445        C450   1.412       .  A
C446       C1129   1.404   1_556  A
C446        C447   1.401       .  A
C446        H455   1.084       .  S
C447       C1132   1.414   1_556  A
C447        S451   1.803       .  S
C448       C1131   1.416       .  A
C448        C449   1.405       .  A
C449        C450   1.400       .  A
C449        H456   1.084       .  S
C450        S452   1.804       .  S
S451        H454   1.407       .  S
S452        H453   1.407       .  S
O457        C695   1.279       .  A
O458       Cu465   2.015   1_565  S
O458       C1608   1.279       .  A
O459       Cu465   2.008       .  S
O460       Cu921   2.005   1_455  S
O461       Cu466   2.017   1_455  S
O462       Cu922   2.018       .  S
O463        C468   1.278   1_554  A
O464       Cu466   2.006   1_455  S
O464       C1379   1.278       .  A
Cu465       O916   2.004       .  S
Cu465     Cu1150   2.373       .  S
Cu466       O918   2.015       .  S
Cu466     Cu1149   2.373   1_554  S
C467        O685   1.279   1_554  A
C467       O1376   1.278       .  A
C467        C676   1.482       .  S
C468       O1598   1.279       .  A
C468        C889   1.483   1_556  S
C469        C652   1.480       .  S
C470        C865   1.481   1_554  S
O471      Cu1391   2.019   1_545  S
O471        C481   1.279       .  A
O472       Cu479   2.006       .  S
O473       Cu479   2.014       .  S
O473       C1395   1.279       .  A
O474       Cu935   2.011   1_655  S
O474       C1396   1.278       .  A
O475       Cu480   2.012   1_655  S
O475       C1396   1.278       .  A
O476       Cu936   2.005       .  S
O476       C1395   1.277       .  A
O477      Cu1392   2.017       .  S
O477        C482   1.279       .  A
O478       Cu480   2.009       .  S
Cu479      O1383   2.008       .  S
Cu479       O930   2.008   1_565  S
Cu479      Cu936   2.373       .  S
Cu480       O932   2.005       .  S
Cu480      O1389   2.013   1_455  S
Cu480      Cu935   2.373       .  S
C481        C589   1.480       .  S
C483       O1385   1.278       .  A
C483       O1388   1.277       .  A
C483        C616   1.477       .  S
C484       O1386   1.278       .  A
C484       O1387   1.278       .  A
C484        C628   1.481       .  S
O485       Cu721   2.008   1_554  S
O485        C495   1.277       .  A
O486       Cu493   2.008       .  S
O486        C496   1.278       .  A
O487       Cu493   2.008       .  S
O487        C725   1.278       .  A
O488       Cu721   2.004       .  S
O488        C726   1.276       .  A
O489       Cu494   2.013       .  S
O489       C1638   1.278   1_455  A
O490       Cu722   2.008       .  S
O490       C1637   1.277   1_455  A
O491       Cu722   2.010       .  S
O491       C1408   1.278   1_455  A
O492       Cu494   2.010       .  S
O492       C1407   1.279   1_455  A
Cu493       O713   2.010       .  S
Cu493       O716   2.007       .  S
Cu493     Cu1634   2.372       .  S
Cu494       O718   2.010       .  S
Cu494       O719   2.011   1_554  S
Cu494     Cu1633   2.372   1_455  S
C495       O1404   1.279       .  A
C495        C580   1.482       .  S
C496       O1403   1.279       .  A
C496        C565   1.484       .  S
C497        O715   1.277       .  A
C497       O1630   1.278       .  A
C497        C673   1.474       .  S
C498        O716   1.277       .  A
C498       O1629   1.279       .  A
C498       C1576   1.476       .  S
O499       Cu507   2.007       .  S
O499       C1421   1.277       .  A
O500       Cu507   2.008       .  S
O500       C1422   1.278   1_455  A
O501       Cu507   2.005       .  S
O501       C1423   1.277   1_455  A
O502       Cu507   2.008       .  S
O502       C1424   1.278   1_455  A
O503       Cu508   2.011       .  S
O503        C512   1.279       .  A
O504       Cu508   2.020       .  S
O504        C511   1.280       .  A
O505       Cu508   2.010       .  S
O505        C510   1.277       .  A
O506       Cu508   2.006       .  S
O506        C509   1.277       .  A
Cu507     Cu1420   2.373   1_455  S
Cu508     Cu1419   2.373       .  S
C509       O1411   1.278       .  A
C509       C1525   1.474       .  S
C510       O1412   1.278       .  A
C510        C625   1.475       .  S
C511       O1413   1.276       .  A
C511        C577   1.483       .  S
C512       O1414   1.277       .  A
C512        C568   1.482       .  S
O513       Cu749   2.003       .  S
O513        C523   1.278   1_565  A
O514       Cu521   2.002   1_554  S
O514        C524   1.278   1_565  A
O515       Cu521   2.016       .  S
O515        C753   1.278   1_565  A
O516       Cu749   2.013       .  S
O516        C754   1.278   1_565  A
O517       Cu522   2.011       .  S
O518       Cu750   2.009       .  S
O519       Cu750   2.002   1_554  S
O520       Cu522   2.003       .  S
Cu521       O741   2.005       .  S
Cu521       O744   2.010       .  S
Cu522       O746   2.011       .  S
Cu522       O747   2.004       .  S
C523        C541   1.485       .  S
C524        C553   1.484       .  S
C525        O743   1.278   1_545  A
C525        C640   1.478       .  S
C526        O744   1.278   1_545  A
C526        C649   1.481       .  S
O527       Cu535   2.016       .  S
O528       Cu535   2.017       .  S
O529       Cu535   1.996       .  S
O530       Cu535   2.006       .  S
O531       Cu536   1.997       .  S
O531        C540   1.275       .  A
O532       Cu536   2.003       .  S
O532        C539   1.277       .  A
O533       Cu536   2.008       .  S
O533        C538   1.278   1_565  A
O534       Cu536   2.012       .  S
O534        C537   1.278       .  A
C537        C604   1.479       .  S
C538        C592   1.478       .  S
C539        C544   1.481   1_565  S
C540        C556   1.488       .  S
C541        C542   1.405   1_545  A
C542        C543   1.396       .  A
C542        H551   1.084       .  S
C543        C544   1.414   1_565  A
C543        S547   1.803       .  S
C545        C546   1.402       .  A
C545        H552   1.082       .  S
C546        S548   1.809       .  S
S547        H550   1.408       .  S
S548        H549   1.406       .  S
C553        C554   1.405   1_545  A
C554        C555   1.403       .  A
C554        H563   1.082       .  S
C555        C556   1.419       .  A
C555        S559   1.811       .  S
C557        C558   1.396       .  A
C557        H564   1.085       .  S
C558        S560   1.803       .  S
S559        H562   1.406       .  S
S560        H561   1.408       .  S
C565       C1478   1.404       .  A
C565        C570   1.417       .  A
C566       C1477   1.404   1_455  A
C566        C567   1.400       .  A
C566        H575   1.083       .  S
C567       C1480   1.414   1_455  A
C567        S571   1.803       .  S
C568       C1479   1.416       .  A
C568        C569   1.404       .  A
C569        C570   1.400       .  A
C569        H576   1.084       .  S
C570        S572   1.803       .  S
S571        H574   1.407       .  S
S572        H573   1.408       .  S
C577        C578   1.405       .  A
C577       C1494   1.415       .  A
C578        C579   1.405       .  A
C578        H587   1.083       .  S
C579        C580   1.414       .  A
C579        S583   1.808       .  S
C580       C1493   1.404       .  A
C581       C1492   1.403   1_455  A
C581        C582   1.398       .  A
C581        H588   1.084       .  S
C582       C1489   1.415   1_455  A
C582        S584   1.803       .  S
S583        H586   1.407       .  S
S584        H585   1.407       .  S
C589        C590   1.404   1_545  A
C590        C591   1.399       .  A
C590        H599   1.084       .  S
C591        C592   1.413   1_565  A
C591        S595   1.804       .  S
C593        C594   1.407       .  A
C593        H600   1.081       .  S
C594        S596   1.808       .  S
S595        H598   1.407       .  S
S596        H597   1.407       .  S
C601        C606   1.414       .  A
C602        C603   1.400       .  A
C602        H611   1.083       .  S
C603        S607   1.804       .  S
C604        C605   1.404       .  A
C605        C606   1.402       .  A
C605        H612   1.083       .  S
C606        S608   1.803       .  S
S607        H610   1.406       .  S
S608        H609   1.407       .  S
C613       C1421   1.481       .  S
C613        C614   1.405       .  A
C613       C1530   1.416   1_455  A
C614        C615   1.401       .  A
C614        H623   1.084       .  S
C615        C616   1.411       .  A
C615        S619   1.800       .  S
C616       C1529   1.402   1_455  A
C617       C1528   1.403       .  A
C617        C618   1.398       .  A
C617        H624   1.084       .  S
C618       C1525   1.412       .  A
C618        S620   1.804       .  S
S619        H622   1.406       .  S
S620        H621   1.405       .  S
C625       C1538   1.402       .  A
C625        C630   1.413       .  A
C626       C1537   1.402   1_455  A
C626        C627   1.399       .  A
C626        H635   1.083       .  S
C627       C1540   1.415   1_455  A
C627        S631   1.803       .  S
C628       C1539   1.416       .  A
C628        C629   1.405       .  A
C629        C630   1.401       .  A
C629        H636   1.082       .  S
C630        S632   1.804       .  S
S631        H634   1.407       .  S
S632        H633   1.407       .  S
C637        C698   1.479       .  S
C637        C870   1.414       .  A
C638        C639   1.403       .  A
C638        H647   1.083       .  S
C639        S643   1.807       .  S
C640        C869   1.404   1_545  A
C641        C868   1.404   1_554  A
C641        C642   1.402       .  A
C641        H648   1.084       .  S
C642        C865   1.414   1_554  A
C642        S644   1.803       .  S
S643        H646   1.407       .  S
S644        H645   1.407       .  S
C649        C882   1.415   1_545  A
C650        C651   1.401       .  A
C650        H659   1.085       .  S
C651        C652   1.414   1_554  A
C651        S655   1.803       .  S
C653        C654   1.400       .  A
C653        H660   1.085       .  S
C654        C877   1.414   1_565  A
C654        S656   1.804       .  S
S655        H658   1.407       .  S
S656        H657   1.407       .  S
C661        C696   1.483       .  S
C661        C890   1.405   1_655  A
C661       C1578   1.416       .  A
C662        C889   1.405   1_455  A
C662        C663   1.399       .  A
C662        H671   1.083       .  S
C663        C892   1.412   1_455  A
C663        S667   1.804       .  S
C664       C1410   1.476       .  S
C664        C891   1.412   1_655  A
C664       C1577   1.403       .  A
C665       C1576   1.403       .  A
C665        C666   1.401       .  A
C665        H672   1.084       .  S
C666       C1573   1.416       .  A
C666        S668   1.803       .  S
S667        H670   1.407       .  S
S668        H669   1.407       .  S
C673       C1814   1.401   1_554  A
C673        C678   1.412       .  A
C674       C1813   1.404   1_455  A
C674        C675   1.401       .  A
C674        H683   1.084       .  S
C675       C1816   1.414       .  A
C675        S679   1.803       .  S
C676       C1815   1.417   1_554  A
C676        C677   1.405       .  A
C677        C678   1.400       .  A
C677        H684   1.084       .  S
C678        S680   1.804       .  S
S679        H682   1.406       .  S
S680        H681   1.407       .  S
O686       Cu693   2.012   1_565  S
O686       C1380   1.278       .  A
O687       Cu693   2.006       .  S
O688      Cu1149   2.003   1_455  S
O689       Cu694   2.019   1_455  S
O690      Cu1150   2.018       .  S
O691        C696   1.278       .  A
O692       Cu694   2.006   1_455  S
O692       C1607   1.277       .  A
Cu693      O1144   2.000       .  S
Cu693      Cu922   2.373   1_556  S
Cu694      O1146   2.017       .  S
Cu694      Cu921   2.373       .  S
C695       O1604   1.277       .  A
C695        C904   1.480       .  S
C696       O1370   1.279       .  A
C697        C880   1.477       .  S
O699      Cu1619   2.016   1_545  S
O699        C709   1.278       .  A
O700       Cu707   2.011       .  S
O701       Cu707   2.014       .  S
O701       C1623   1.279       .  A
O702      Cu1163   2.005   1_655  S
O702       C1624   1.277       .  A
O703       Cu708   2.014       .  S
O703       C1624   1.279       .  A
O704      Cu1164   2.009       .  S
O704       C1623   1.277       .  A
O705      Cu1620   2.016       .  S
O705        C710   1.279       .  A
O706       Cu708   2.004   1_455  S
Cu707      O1611   2.013       .  S
Cu707      O1158   2.007   1_565  S
Cu707     Cu1164   2.372       .  S
Cu708      O1160   2.008   1_655  S
Cu708      O1617   2.010       .  S
Cu708     Cu1163   2.374   1_655  S
C709        C817   1.481       .  S
C711       O1613   1.279       .  A
C711       O1616   1.276       .  A
C711        C844   1.477       .  S
C712       O1614   1.278       .  A
C712       O1615   1.278       .  A
C712        C856   1.481       .  S
O713        C723   1.278       .  A
O714       Cu721   2.007       .  S
O714        C724   1.278       .  A
O715       Cu721   2.004   1_554  S
O717       Cu722   2.012       .  S
O717       C1410   1.278   1_455  A
O718       C1409   1.277   1_455  A
O719       C1636   1.278   1_455  A
O720       Cu722   2.010       .  S
O720       C1635   1.279   1_455  A
Cu721     Cu1406   2.372   1_556  S
Cu722     Cu1405   2.372   1_455  S
C723       O1632   1.278       .  A
C723        C808   1.476       .  S
C724       O1631   1.278       .  A
C724        C793   1.485       .  S
C725       O1402   1.278       .  A
C725        C901   1.475       .  S
C726       O1401   1.279   1_556  A
C726       C1804   1.474       .  S
O727       Cu735   2.008       .  S
O727       C1649   1.277       .  A
O728       Cu735   2.007       .  S
O728       C1650   1.278   1_455  A
O729       Cu735   2.007       .  S
O729       C1651   1.278   1_455  A
O730       Cu735   2.013       .  S
O730       C1652   1.278       .  A
O731       Cu736   2.002       .  S
O731        C740   1.278       .  A
O732       Cu736   2.013       .  S
O732        C739   1.278       .  A
O733       Cu736   2.014       .  S
O733        C738   1.278       .  A
O734       Cu736   2.006       .  S
O734        C737   1.278       .  A
Cu735     Cu1648   2.373   1_455  S
Cu736     Cu1647   2.374       .  S
C737       O1639   1.278       .  A
C737       C1753   1.477       .  S
C738       O1640   1.278       .  A
C738        C853   1.477       .  S
C739       O1641   1.278       .  A
C739        C805   1.477       .  S
C740       O1642   1.279       .  A
C740        C796   1.482       .  S
O741        C751   1.279   1_565  A
O742       Cu749   2.000       .  S
O742        C752   1.278   1_565  A
O743       Cu749   2.016       .  S
O745       Cu750   2.010       .  S
O748       Cu750   2.005       .  S
C751        C769   1.483       .  S
C752        C781   1.482   1_545  S
C753        C868   1.480   1_545  S
C754        C877   1.480       .  S
O755       Cu763   2.013       .  S
O756       Cu763   2.016       .  S
O757       Cu763   2.003       .  S
O758       Cu763   2.010       .  S
O759       Cu764   2.000       .  S
O759        C768   1.276       .  A
O760       Cu764   2.006       .  S
O760        C767   1.278       .  A
O761       Cu764   2.010       .  S
O761        C766   1.278   1_565  A
O762       Cu764   2.011       .  S
O762        C765   1.277       .  A
C765        C832   1.479       .  S
C766        C820   1.480       .  S
C767        C772   1.479       .  S
C768        C784   1.486       .  S
C769        C770   1.405   1_545  A
C770        C771   1.396       .  A
C770        H779   1.084       .  S
C771        C772   1.413       .  A
C771        S775   1.803       .  S
C773        C774   1.403       .  A
C773        H780   1.083       .  S
C774        S776   1.809       .  S
S775        H778   1.408       .  S
S776        H777   1.406       .  S
C781        C782   1.404       .  A
C782        C783   1.402       .  A
C782        H791   1.083       .  S
C783        C784   1.418       .  A
C783        S787   1.810       .  S
C785        C786   1.397       .  A
C785        H792   1.084       .  S
C786        S788   1.803       .  S
S787        H790   1.406       .  S
S788        H789   1.408       .  S
C793       C1706   1.406       .  A
C793        C798   1.416       .  A
C794       C1705   1.405   1_455  A
C794        C795   1.401       .  A
C794        H803   1.084       .  S
C795       C1708   1.414       .  A
C795        S799   1.803       .  S
C796       C1707   1.416       .  A
C796        C797   1.404       .  A
C797        C798   1.398       .  A
C797        H804   1.084       .  S
C798        S800   1.803       .  S
S799        H802   1.407       .  S
S800        H801   1.408       .  S
C805        C806   1.404       .  A
C805       C1722   1.412       .  A
C806        C807   1.405       .  A
C806        H815   1.083       .  S
C807        C808   1.412       .  A
C807        S811   1.807       .  S
C808       C1721   1.403       .  A
C809       C1720   1.403   1_455  A
C809        C810   1.398       .  A
C809        H816   1.085       .  S
C810       C1717   1.414   1_455  A
C810        S812   1.803       .  S
S811        H814   1.407       .  S
S812        H813   1.407       .  S
C817        C818   1.403   1_545  A
C818        C819   1.400       .  A
C818        H827   1.084       .  S
C819        C820   1.414   1_565  A
C819        S823   1.802       .  S
C821        C822   1.402       .  A
C821        H828   1.083       .  S
C822        S824   1.799       .  S
S823        H826   1.407       .  S
S824        H825   1.407       .  S
C829        C834   1.414       .  A
C830        C831   1.400       .  A
C830        H839   1.084       .  S
C831        S835   1.803       .  S
C832        C833   1.404       .  A
C833        C834   1.402       .  A
C833        H840   1.083       .  S
C834        S836   1.803       .  S
S835        H838   1.407       .  S
S836        H837   1.407       .  S
C841       C1649   1.480       .  S
C841        C842   1.405       .  A
C841       C1758   1.415   1_455  A
C842        C843   1.401       .  A
C842        H851   1.084       .  S
C843        C844   1.412       .  A
C843        S847   1.800       .  S
C844       C1757   1.402   1_455  A
C845       C1756   1.403       .  A
C845        C846   1.399       .  A
C845        H852   1.084       .  S
C846       C1753   1.414       .  A
C846        S848   1.804       .  S
S847        H850   1.406       .  S
S848        H849   1.405       .  S
C853       C1766   1.402       .  A
C853        C858   1.413       .  A
C854       C1765   1.403   1_455  A
C854        C855   1.399       .  A
C854        H863   1.082       .  S
C855       C1768   1.413   1_455  A
C855        S859   1.803       .  S
C856       C1767   1.416       .  A
C856        C857   1.405       .  A
C857        C858   1.401       .  A
C857        H864   1.084       .  S
C858        S860   1.804       .  S
S859        H862   1.407       .  S
S860        H861   1.407       .  S
C866        C867   1.402       .  A
C866        H875   1.083       .  S
C867        S871   1.807       .  S
C869        C870   1.402       .  A
C869        H876   1.084       .  S
C870        S872   1.803       .  S
S871        H874   1.407       .  S
S872        H873   1.407       .  S
C878        C879   1.401       .  A
C878        H887   1.085       .  S
C879        C880   1.412       .  A
C879        S883   1.803       .  S
C881        C882   1.400       .  A
C881        H888   1.085       .  S
C882        S884   1.804       .  S
S883        H886   1.407       .  S
S884        H885   1.407       .  S
C889       C1806   1.416   1_554  A
C890        C891   1.400       .  A
C890        H899   1.083       .  S
C891        S895   1.804       .  S
C892       C1638   1.477       .  S
C892       C1805   1.403   1_554  A
C893       C1804   1.402       .  A
C893        C894   1.401       .  A
C893        H900   1.084       .  S
C894       C1801   1.416       .  A
C894        S896   1.803       .  S
S895        H898   1.407       .  S
S896        H897   1.407       .  S
C901       C1586   1.402       .  A
C901        C906   1.413       .  A
C902       C1585   1.403   1_556  A
C902        C903   1.401       .  A
C902        H911   1.084       .  S
C903       C1588   1.415   1_556  A
C903        S907   1.803       .  S
C904       C1587   1.415       .  A
C904        C905   1.404       .  A
C905        C906   1.400       .  A
C905        H912   1.084       .  S
C906        S908   1.804       .  S
S907        H910   1.406       .  S
S908        H909   1.407       .  S
O913      Cu1377   2.017   1_455  S
O913       C1151   1.279       .  A
O914       Cu921   2.015       .  S
O915       Cu921   2.004       .  S
O915       C1609   1.277       .  A
O916       C1610   1.277       .  A
O917       Cu922   2.017       .  S
O917       C1382   1.279   1_554  A
O918       C1381   1.279   1_554  A
O919      Cu1378   2.009       .  S
O919        C924   1.278   1_554  A
O920       Cu922   2.007       .  S
Cu921      O1369   2.015   1_655  S
Cu922      O1375   2.007   1_545  S
C923       O1141   1.279   1_554  A
C923       C1132   1.478       .  S
C924       C1345   1.483       .  S
C925       O1599   1.277       .  A
C925       O1374   1.279   1_556  A
C925       C1108   1.478       .  S
C926       O1600   1.277   1_554  A
C926       O1373   1.279       .  A
C926       C1321   1.477   1_554  S
O927        C937   1.278       .  A
O928       Cu935   2.011   1_655  S
O928       C1394   1.278       .  A
O929       Cu935   2.017       .  S
O931       Cu936   2.014   1_545  S
O933        C938   1.278       .  A
O934       Cu936   2.012       .  S
O934       C1393   1.278       .  A
C937       O1390   1.279       .  A
C937       C1045   1.483       .  S
C938       O1384   1.278       .  A
C938       C1513   1.478       .  S
C939       C1072   1.481       .  S
C940       C1084   1.477       .  S
O941      Cu1177   2.005       .  S
O941        C951   1.277       .  A
O942       Cu949   2.007       .  S
O942        C952   1.278   1_655  A
O943       Cu949   2.007       .  S
O943       C1181   1.278   1_655  A
O944      Cu1177   2.014   1_556  S
O944       C1182   1.278   1_556  A
O945       Cu950   2.020       .  S
O946      Cu1178   2.012       .  S
O947      Cu1178   2.014       .  S
O948       Cu950   2.013       .  S
Cu949      O1169   2.008       .  S
Cu949      O1172   2.012       .  S
Cu950      O1174   2.010       .  S
Cu950      O1175   2.015   1_554  S
C951       C1036   1.482       .  S
C952       C1021   1.482       .  S
C953       O1171   1.278       .  A
C953       C1129   1.475   1_655  S
C954       O1172   1.278       .  A
O955       Cu963   2.016       .  S
O956       Cu963   2.013       .  S
O957       Cu963   2.008       .  S
O958       Cu963   2.016       .  S
O959       Cu964   2.003       .  S
O959        C968   1.277   1_655  A
O960       Cu964   2.011       .  S
O960        C967   1.278       .  A
O961       Cu964   2.011       .  S
O961        C966   1.278       .  A
O962       Cu964   2.012       .  S
O962        C965   1.279   1_655  A
C966       C1081   1.477       .  S
C967       C1033   1.483       .  S
C968       C1024   1.479       .  S
O969      Cu1205   1.992       .  S
O969        C979   1.277       .  A
O970       Cu977   1.993   1_554  S
O970        C980   1.277       .  A
O971       Cu977   2.013   1_554  S
O971       C1209   1.278   1_554  A
O972      Cu1205   2.006       .  S
O972       C1210   1.278       .  A
O973       Cu978   2.012       .  S
O973       C1666   1.278       .  A
O974      Cu1206   2.007   1_556  S
O974       C1665   1.277       .  A
O975      Cu1206   2.003       .  S
O975       C1436   1.277       .  A
O976       Cu978   2.008       .  S
O976       C1435   1.277       .  A
Cu977      O1197   1.993       .  S
Cu977      O1200   2.006       .  S
Cu977     Cu1662   2.369       .  S
Cu978      O1202   2.007       .  S
Cu978      O1203   2.005       .  S
Cu978     Cu1661   2.369   1_545  S
C979       O1432   1.276       .  A
C979        C997   1.489       .  S
C980       O1431   1.277       .  A
C980       C1009   1.480       .  S
C981       O1199   1.278       .  A
C981       O1658   1.277       .  A
C981       C1096   1.477       .  S
C982       O1200   1.277       .  A
C982       O1657   1.278       .  A
C982       C1105   1.477       .  S
O983       Cu991   2.017       .  S
O983       C1449   1.279   1_545  A
O984       Cu991   2.018       .  S
O984       C1450   1.279   1_545  A
O985       Cu991   1.995       .  S
O985       C1451   1.277   1_545  A
O986       Cu991   1.996       .  S
O986       C1452   1.278   1_545  A
O987       Cu992   1.997       .  S
O987        C996   1.275       .  A
O988       Cu992   2.003       .  S
O988        C995   1.276       .  A
O989       Cu992   2.006       .  S
O989        C994   1.277       .  A
O990       Cu992   2.009       .  S
O990        C993   1.277       .  A
Cu991     Cu1448   2.368   1_545  S
Cu992     Cu1447   2.369       .  S
C993       O1439   1.279       .  A
C993       C1060   1.480       .  S
C994       O1440   1.279       .  A
C994       C1048   1.477       .  S
C995       O1441   1.277       .  A
C995       C1000   1.488       .  S
C996       O1442   1.278       .  A
C996       C1012   1.484       .  S
C997        C998   1.406       .  A
C997       C1458   1.418       .  A
C998        C999   1.395       .  A
C998       H1007   1.083       .  S
C999       C1000   1.416       .  A
C999       S1003   1.802       .  S
C1000      C1457   1.408       .  A
C1001      C1456   1.408   1_545  A
C1001      C1002   1.398       .  A
C1001      H1008   1.083       .  S
C1002      C1453   1.417       .  A
C1002      S1004   1.802       .  S
S1003      H1006   1.408       .  S
S1004      H1005   1.408       .  S
C1009      C1010   1.404       .  A
C1009      C1470   1.414       .  A
C1010      C1011   1.401       .  A
C1010      H1019   1.082       .  S
C1011      C1012   1.418       .  A
C1011      S1015   1.810       .  S
C1012      C1469   1.406       .  A
C1013      C1468   1.405   1_545  A
C1013      C1014   1.394       .  A
C1013      H1020   1.084       .  S
C1014      C1465   1.413       .  A
C1014      S1016   1.803       .  S
S1015      H1018   1.406       .  S
S1016      H1017   1.408       .  S
C1021      C1026   1.415   1_455  A
C1022      C1023   1.402       .  A
C1022      H1031   1.083       .  S
C1023      S1027   1.803       .  S
C1024      C1025   1.403   1_455  A
C1025      C1026   1.398       .  A
C1025      H1032   1.083       .  S
C1026      S1028   1.803       .  S
S1027      H1030   1.407       .  S
S1028      H1029   1.408       .  S
C1033      C1034   1.405       .  A
C1034      C1035   1.404       .  A
C1034      H1043   1.083       .  S
C1035      C1036   1.414       .  A
C1035      S1039   1.807       .  S
C1037      C1038   1.399       .  A
C1037      H1044   1.085       .  S
C1038      S1040   1.803       .  S
S1039      H1042   1.407       .  S
S1040      H1041   1.407       .  S
C1045      C1046   1.403       .  A
C1045      C1506   1.416       .  A
C1046      C1047   1.398       .  A
C1046      H1055   1.084       .  S
C1047      C1048   1.412       .  A
C1047      S1051   1.802       .  S
C1048      C1505   1.402       .  A
C1049      C1504   1.405   1_545  A
C1049      C1050   1.401       .  A
C1049      H1056   1.083       .  S
C1050      C1501   1.412   1_545  A
C1050      S1052   1.800       .  S
S1051      H1054   1.407       .  S
S1052      H1053   1.406       .  S
C1057      C1394   1.478       .  S
C1057      C1514   1.403       .  A
C1057      C1062   1.414       .  A
C1058      C1513   1.403   1_545  A
C1058      C1059   1.401       .  A
C1058      H1067   1.084       .  S
C1059      C1516   1.415   1_545  A
C1059      S1063   1.803       .  S
C1060      C1515   1.414       .  A
C1060      C1061   1.405       .  A
C1061      C1062   1.402       .  A
C1061      H1068   1.083       .  S
C1062      S1064   1.804       .  S
S1063      H1066   1.407       .  S
S1064      H1065   1.407       .  S
C1069      C1070   1.403       .  A
C1070      C1071   1.402       .  A
C1070      H1079   1.083       .  S
C1071      C1072   1.416       .  A
C1071      S1075   1.803       .  S
C1073      C1074   1.400       .  A
C1073      H1080   1.084       .  S
C1074      S1076   1.803       .  S
S1075      H1078   1.407       .  S
S1076      H1077   1.407       .  S
C1081      C1086   1.414       .  A
C1082      C1083   1.400       .  A
C1082      H1091   1.083       .  S
C1083      S1087   1.803       .  S
C1084      C1085   1.404       .  A
C1085      C1086   1.401       .  A
C1085      H1092   1.083       .  S
C1086      S1088   1.803       .  S
S1087      H1090   1.407       .  S
S1088      H1089   1.407       .  S
C1093      C1154   1.476       .  S
C1093      C1550   1.403       .  A
C1093      C1326   1.413       .  A
C1094      C1549   1.403       .  A
C1094      C1095   1.402       .  A
C1094      H1103   1.080       .  S
C1095      C1552   1.413       .  A
C1095      S1099   1.809       .  S
C1096      C1551   1.413       .  A
C1096      C1325   1.404       .  A
C1097      C1324   1.405   1_554  A
C1097      C1098   1.401       .  A
C1097      H1104   1.084       .  S
C1098      C1321   1.412   1_554  A
C1098      S1100   1.803       .  S
S1099      H1102   1.407       .  S
S1100      H1101   1.407       .  S
C1105      C1562   1.404   1_556  A
C1105      C1338   1.414       .  A
C1106      C1561   1.404   1_554  A
C1106      C1107   1.402       .  A
C1106      H1115   1.084       .  S
C1107      C1108   1.414   1_554  A
C1107      S1111   1.802       .  S
C1108      C1793   1.403   1_545  A
C1109      C1792   1.403       .  A
C1109      C1110   1.398       .  A
C1109      H1116   1.084       .  S
C1110      C1333   1.413       .  A
C1110      S1112   1.804       .  S
S1111      H1114   1.406       .  S
S1112      H1113   1.407       .  S
C1117      C1152   1.480       .  S
C1117      C1346   1.405       .  A
C1118      C1345   1.406   1_554  A
C1118      C1119   1.400       .  A
C1118      H1127   1.083       .  S
C1119      C1348   1.413       .  A
C1119      S1123   1.804       .  S
C1120      C1347   1.413       .  A
C1121      C1122   1.402       .  A
C1121      H1128   1.083       .  S
C1122      S1124   1.803       .  S
S1123      H1126   1.405       .  S
S1124      H1125   1.407       .  S
C1129      C1134   1.412   1_455  A
C1130      C1131   1.400       .  A
C1130      H1139   1.084       .  S
C1131      S1135   1.801       .  S
C1132      C1133   1.404   1_455  A
C1133      C1134   1.398       .  A
C1133      H1140   1.083       .  S
C1134      S1136   1.804       .  S
S1135      H1138   1.405       .  S
S1136      H1137   1.407       .  S
O1141     Cu1605   2.015   1_455  S
O1142     Cu1149   2.016       .  S
O1143     Cu1149   2.005       .  S
O1143      C1381   1.277       .  A
O1144      C1382   1.277       .  A
O1145     Cu1150   2.017       .  S
O1145      C1610   1.279       .  A
O1146      C1609   1.279       .  A
O1147     Cu1606   2.006       .  S
O1147      C1152   1.278       .  A
O1148     Cu1150   2.009       .  S
Cu1149     O1597   2.016   1_655  S
Cu1150     O1603   2.008   1_545  S
C1151      C1360   1.479       .  S
C1153      O1371   1.277       .  A
C1153      O1602   1.279       .  A
C1153      C1336   1.477       .  S
C1154      O1372   1.277       .  A
C1154      O1601   1.279       .  A
O1155      C1165   1.277       .  A
O1156     Cu1163   2.012   1_655  S
O1156      C1622   1.278       .  A
O1157     Cu1163   2.015       .  S
O1159     Cu1164   2.011   1_545  S
O1161      C1166   1.278       .  A
O1162     Cu1164   2.010       .  S
O1162      C1621   1.278       .  A
C1165      O1618   1.278       .  A
C1165      C1273   1.474       .  S
C1166      O1612   1.278       .  A
C1166      C1741   1.479       .  S
C1167      C1300   1.481       .  S
C1168      C1312   1.481       .  S
O1169      C1179   1.277       .  A
O1170     Cu1177   2.002   1_556  S
O1170      C1180   1.277       .  A
O1171     Cu1177   2.009       .  S
O1173     Cu1178   2.018       .  S
O1176     Cu1178   2.012       .  S
C1179      C1264   1.483       .  S
C1180      C1249   1.477       .  S
C1181      C1357   1.476       .  S
O1183     Cu1191   2.011       .  S
O1184     Cu1191   2.010       .  S
O1185     Cu1191   2.000       .  S
O1186     Cu1191   2.009       .  S
O1187     Cu1192   2.003       .  S
O1187      C1196   1.277       .  A
O1188     Cu1192   2.014       .  S
O1188      C1195   1.279       .  A
O1189     Cu1192   2.017       .  S
O1189      C1194   1.278       .  A
O1190     Cu1192   2.018       .  S
O1190      C1193   1.279       .  A
C1194      C1309   1.477       .  S
C1195      C1261   1.485       .  S
C1196      C1252   1.475       .  S
O1197      C1207   1.277       .  A
O1198     Cu1205   1.992       .  S
O1198      C1208   1.276       .  A
O1199     Cu1205   2.012       .  S
O1201     Cu1206   2.013       .  S
O1201      C1438   1.278   1_554  A
O1202      C1437   1.277       .  A
O1203      C1664   1.277       .  A
O1204     Cu1206   2.005   1_556  S
O1204      C1663   1.276       .  A
Cu1205    Cu1434   2.369       .  S
Cu1206    Cu1433   2.369   1_544  S
C1207      O1660   1.276       .  A
C1207      C1225   1.489       .  S
C1208      O1659   1.277       .  A
C1208      C1237   1.479       .  S
C1209      O1430   1.277       .  A
C1209      C1324   1.479       .  S
C1210      O1429   1.278       .  A
C1210      C1333   1.477       .  S
O1211     Cu1219   2.017       .  S
O1211      C1677   1.279   1_545  A
O1212     Cu1219   2.020       .  S
O1212      C1678   1.279       .  A
O1213     Cu1219   1.995       .  S
O1213      C1679   1.277       .  A
O1214     Cu1219   2.003       .  S
O1214      C1680   1.278   1_545  A
O1215     Cu1220   2.005       .  S
O1215      C1224   1.277       .  A
O1216     Cu1220   2.006       .  S
O1216      C1223   1.277       .  A
O1217     Cu1220   2.005       .  S
O1217      C1222   1.277       .  A
O1218     Cu1220   2.009       .  S
O1218      C1221   1.277       .  A
Cu1219    Cu1676   2.369   1_545  S
Cu1220    Cu1675   2.368       .  S
C1221      O1667   1.279       .  A
C1221      C1288   1.480       .  S
C1222      O1668   1.279       .  A
C1222      C1276   1.483       .  S
C1223      O1669   1.277       .  A
C1223      C1228   1.488       .  S
C1224      O1670   1.277       .  A
C1224      C1240   1.483       .  S
C1225      C1226   1.407       .  A
C1225      C1686   1.417       .  A
C1226      C1227   1.395       .  A
C1226      H1235   1.084       .  S
C1227      C1228   1.416       .  A
C1227      S1231   1.802       .  S
C1228      C1685   1.408       .  A
C1229      C1684   1.407       .  A
C1229      C1230   1.399       .  A
C1229      H1236   1.084       .  S
C1230      C1681   1.418       .  A
C1230      S1232   1.801       .  S
S1231      H1234   1.408       .  S
S1232      H1233   1.408       .  S
C1237      C1238   1.405       .  A
C1237      C1698   1.413       .  A
C1238      C1239   1.402       .  A
C1238      H1247   1.082       .  S
C1239      C1240   1.417       .  A
C1239      S1243   1.809       .  S
C1240      C1697   1.405       .  A
C1241      C1696   1.406       .  A
C1241      C1242   1.396       .  A
C1241      H1248   1.083       .  S
C1242      C1693   1.413       .  A
C1242      S1244   1.803       .  S
S1243      H1246   1.406       .  S
S1244      H1245   1.408       .  S
C1249      C1254   1.415       .  A
C1250      C1251   1.401       .  A
C1250      H1259   1.084       .  S
C1251      S1255   1.803       .  S
C1252      C1253   1.402       .  A
C1253      C1254   1.398       .  A
C1253      H1260   1.084       .  S
C1254      S1256   1.804       .  S
S1255      H1258   1.407       .  S
S1256      H1257   1.408       .  S
C1261      C1262   1.405       .  A
C1262      C1263   1.401       .  A
C1262      H1271   1.085       .  S
C1263      C1264   1.416       .  A
C1263      S1267   1.803       .  S
C1265      C1266   1.398       .  A
C1265      H1272   1.084       .  S
C1266      S1268   1.803       .  S
S1267      H1270   1.407       .  S
S1268      H1269   1.406       .  S
C1273      C1274   1.400       .  A
C1273      C1734   1.411       .  A
C1274      C1275   1.399       .  A
C1274      H1283   1.084       .  S
C1275      C1276   1.417       .  A
C1275      S1279   1.801       .  S
C1276      C1733   1.405       .  A
C1277      C1732   1.403       .  A
C1277      C1278   1.407       .  A
C1277      H1284   1.082       .  S
C1278      C1729   1.416       .  A
C1278      S1280   1.808       .  S
S1279      H1282   1.407       .  S
S1280      H1281   1.407       .  S
C1285      C1622   1.477       .  S
C1285      C1742   1.403       .  A
C1285      C1290   1.413       .  A
C1286      C1741   1.403   1_545  A
C1286      C1287   1.400       .  A
C1286      H1295   1.084       .  S
C1287      C1744   1.414   1_545  A
C1287      S1291   1.803       .  S
C1288      C1743   1.415       .  A
C1288      C1289   1.405       .  A
C1289      C1290   1.401       .  A
C1289      H1296   1.084       .  S
C1290      S1292   1.804       .  S
S1291      H1294   1.407       .  S
S1292      H1293   1.407       .  S
C1297      C1298   1.403       .  A
C1298      C1299   1.405       .  A
C1298      H1307   1.083       .  S
C1299      C1300   1.415       .  A
C1299      S1303   1.808       .  S
C1301      C1302   1.400       .  A
C1301      H1308   1.084       .  S
C1302      S1304   1.803       .  S
S1303      H1306   1.407       .  S
S1304      H1305   1.406       .  S
C1309      C1314   1.413       .  A
C1310      C1311   1.399       .  A
C1310      H1319   1.080       .  S
C1311      S1315   1.803       .  S
C1312      C1313   1.406       .  A
C1313      C1314   1.402       .  A
C1313      H1320   1.083       .  S
C1314      S1316   1.803       .  S
S1315      H1318   1.407       .  S
S1316      H1317   1.406       .  S
C1321      C1778   1.403       .  A
C1322      C1777   1.404   1_545  A
C1322      C1323   1.402       .  A
C1322      H1331   1.081       .  S
C1323      C1780   1.412       .  A
C1323      S1327   1.809       .  S
C1324      C1779   1.413       .  A
C1325      C1326   1.400       .  A
C1325      H1332   1.083       .  S
C1326      S1328   1.803       .  S
S1327      H1330   1.407       .  S
S1328      H1329   1.406       .  S
C1333      C1790   1.404       .  A
C1334      C1789   1.404       .  A
C1334      C1335   1.401       .  A
C1334      H1343   1.084       .  S
C1335      C1336   1.413       .  A
C1335      S1339   1.803       .  S
C1336      C1565   1.403   1_545  A
C1337      C1564   1.403       .  A
C1337      C1338   1.398       .  A
C1337      H1344   1.084       .  S
C1338      S1340   1.804       .  S
S1339      H1342   1.406       .  S
S1340      H1341   1.407       .  S
C1346      C1347   1.400       .  A
C1346      H1355   1.082       .  S
C1347      S1351   1.804       .  S
C1349      C1350   1.402       .  A
C1349      H1356   1.083       .  S
C1350      S1352   1.803       .  S
S1351      H1354   1.405       .  S
S1352      H1353   1.407       .  S
C1357      C1362   1.413   1_455  A
C1358      C1359   1.400       .  A
C1358      H1367   1.084       .  S
C1359      S1363   1.802       .  S
C1360      C1361   1.404   1_455  A
C1361      C1362   1.399       .  A
C1361      H1368   1.084       .  S
C1362      S1364   1.804       .  S
S1363      H1366   1.406       .  S
S1364      H1365   1.407       .  S
O1369      C1607   1.279       .  A
O1370     Cu1377   2.016   1_565  S
O1371     Cu1377   2.005       .  S
O1373     Cu1378   2.015       .  S
O1375      C1380   1.278   1_554  A
O1376     Cu1378   2.011       .  S
C1379      O1597   1.279   1_554  A
C1379      C1588   1.480       .  S
C1380      C1801   1.483       .  S
C1381      C1564   1.477       .  S
C1382      C1777   1.477   1_545  S
O1383      C1393   1.277       .  A
O1384     Cu1391   2.014   1_655  S
O1385     Cu1391   2.015       .  S
O1387     Cu1392   2.013       .  S
O1389      C1394   1.278       .  A
O1390     Cu1392   2.011       .  S
C1393      C1501   1.475       .  S
C1395      C1528   1.480       .  S
C1396      C1540   1.481       .  S
O1397     Cu1633   2.009       .  S
O1397      C1407   1.277       .  A
O1398     Cu1405   2.002       .  S
O1398      C1408   1.277       .  A
O1399     Cu1405   2.010       .  S
O1399      C1637   1.278       .  A
O1400     Cu1633   2.013   1_556  S
O1400      C1638   1.278   1_556  A
O1401     Cu1406   2.018       .  S
O1402     Cu1634   2.010       .  S
O1403     Cu1634   2.012       .  S
O1404     Cu1406   2.009       .  S
Cu1405     O1625   2.005       .  S
Cu1405     O1628   2.013       .  S
Cu1406     O1630   2.015       .  S
Cu1406     O1631   2.013   1_554  S
C1407      C1492   1.483       .  S
C1408      C1477   1.479       .  S
C1409      O1627   1.278       .  A
C1409      C1585   1.476   1_655  S
C1410      O1628   1.278       .  A
O1411     Cu1419   2.010       .  S
O1412     Cu1419   2.013       .  S
O1413     Cu1419   1.999       .  S
O1414     Cu1419   2.008       .  S
O1415     Cu1420   2.003       .  S
O1415      C1424   1.277       .  A
O1416     Cu1420   2.015       .  S
O1416      C1423   1.279       .  A
O1417     Cu1420   2.017       .  S
O1417      C1422   1.278       .  A
O1418     Cu1420   2.016       .  S
O1418      C1421   1.279   1_655  A
C1422      C1537   1.477       .  S
C1423      C1489   1.484       .  S
C1424      C1480   1.477       .  S
O1425     Cu1661   1.992       .  S
O1425      C1435   1.277   1_565  A
O1426     Cu1433   1.994   1_554  S
O1426      C1436   1.277   1_565  A
O1427     Cu1433   2.011       .  S
O1427      C1665   1.278   1_565  A
O1428     Cu1661   2.007       .  S
O1428      C1666   1.278   1_565  A
O1429     Cu1434   2.010       .  S
O1430     Cu1662   2.006       .  S
O1431     Cu1662   2.005   1_554  S
O1432     Cu1434   2.007       .  S
Cu1433     O1653   1.994       .  S
Cu1433     O1656   2.006       .  S
Cu1434     O1658   2.004       .  S
Cu1434     O1659   2.003       .  S
C1435      C1453   1.488       .  S
C1436      C1465   1.479       .  S
C1437      O1655   1.278   1_545  A
C1437      C1552   1.480       .  S
C1438      O1656   1.278   1_545  A
C1438      C1561   1.477       .  S
O1439     Cu1447   2.017       .  S
O1440     Cu1447   2.020       .  S
O1441     Cu1447   1.996       .  S
O1442     Cu1447   2.004       .  S
O1443     Cu1448   2.003       .  S
O1443      C1452   1.276       .  A
O1444     Cu1448   2.004       .  S
O1444      C1451   1.276       .  A
O1445     Cu1448   2.007       .  S
O1445      C1450   1.277       .  A
O1446     Cu1448   2.008       .  S
O1446      C1449   1.277       .  A
C1449      C1516   1.481       .  S
C1450      C1504   1.484       .  S
C1451      C1456   1.489       .  S
C1452      C1468   1.483       .  S
C1453      C1454   1.406   1_545  A
C1454      C1455   1.395       .  A
C1454      H1463   1.083       .  S
C1455      C1456   1.417       .  A
C1455      S1459   1.801       .  S
C1457      C1458   1.399       .  A
C1457      H1464   1.083       .  S
C1458      S1460   1.801       .  S
S1459      H1462   1.408       .  S
S1460      H1461   1.408       .  S
C1465      C1466   1.405   1_545  A
C1466      C1467   1.402       .  A
C1466      H1475   1.082       .  S
C1467      C1468   1.417       .  A
C1467      S1471   1.810       .  S
C1469      C1470   1.396       .  A
C1469      H1476   1.083       .  S
C1470      S1472   1.803       .  S
S1471      H1474   1.406       .  S
S1472      H1473   1.408       .  S
C1477      C1482   1.415       .  A
C1478      C1479   1.400       .  A
C1478      H1487   1.084       .  S
C1479      S1483   1.803       .  S
C1480      C1481   1.403       .  A
C1481      C1482   1.398       .  A
C1481      H1488   1.083       .  S
C1482      S1484   1.804       .  S
S1483      H1486   1.406       .  S
S1484      H1485   1.408       .  S
C1489      C1490   1.405       .  A
C1490      C1491   1.405       .  A
C1490      H1499   1.083       .  S
C1491      C1492   1.415       .  A
C1491      S1495   1.808       .  S
C1493      C1494   1.398       .  A
C1493      H1500   1.084       .  S
C1494      S1496   1.803       .  S
S1495      H1498   1.407       .  S
S1496      H1497   1.407       .  S
C1501      C1502   1.401       .  A
C1502      C1503   1.399       .  A
C1502      H1511   1.084       .  S
C1503      C1504   1.417       .  A
C1503      S1507   1.801       .  S
C1505      C1506   1.406       .  A
C1505      H1512   1.083       .  S
C1506      S1508   1.808       .  S
S1507      H1510   1.407       .  S
S1508      H1509   1.407       .  S
C1513      C1518   1.413       .  A
C1514      C1515   1.400       .  A
C1514      H1523   1.083       .  S
C1515      S1519   1.803       .  S
C1516      C1517   1.405       .  A
C1517      C1518   1.401       .  A
C1517      H1524   1.084       .  S
C1518      S1520   1.804       .  S
S1519      H1522   1.407       .  S
S1520      H1521   1.407       .  S
C1525      C1526   1.403       .  A
C1526      C1527   1.404       .  A
C1526      H1535   1.083       .  S
C1527      C1528   1.415       .  A
C1527      S1531   1.808       .  S
C1529      C1530   1.400       .  A
C1529      H1536   1.084       .  S
C1530      S1532   1.803       .  S
S1531      H1534   1.407       .  S
S1532      H1533   1.407       .  S
C1537      C1542   1.413       .  A
C1538      C1539   1.400       .  A
C1538      H1547   1.082       .  S
C1539      S1543   1.803       .  S
C1540      C1541   1.406       .  A
C1541      C1542   1.402       .  A
C1541      H1548   1.084       .  S
C1542      S1544   1.803       .  S
S1543      H1546   1.407       .  S
S1544      H1545   1.406       .  S
C1549      C1610   1.478       .  S
C1549      C1782   1.413   1_545  A
C1550      C1551   1.402       .  A
C1550      H1559   1.081       .  S
C1551      S1555   1.809       .  S
C1552      C1781   1.405   1_545  A
C1553      C1780   1.404   1_564  A
C1553      C1554   1.401       .  A
C1553      H1560   1.083       .  S
C1554      C1777   1.413   1_554  A
C1554      S1556   1.803       .  S
S1555      H1558   1.407       .  S
S1556      H1557   1.407       .  S
C1561      C1794   1.414   1_545  A
C1562      C1563   1.401       .  A
C1562      H1571   1.084       .  S
C1563      C1564   1.414   1_554  A
C1563      S1567   1.803       .  S
C1565      C1566   1.399       .  A
C1565      H1572   1.084       .  S
C1566      C1789   1.414   1_565  A
C1566      S1568   1.804       .  S
S1567      H1570   1.406       .  S
S1568      H1569   1.407       .  S
C1573      C1608   1.483       .  S
C1573      C1802   1.406       .  A
C1574      C1801   1.407   1_554  A
C1574      C1575   1.399       .  A
C1574      H1583   1.083       .  S
C1575      C1804   1.411   1_554  A
C1575      S1579   1.804       .  S
C1576      C1803   1.412       .  A
C1577      C1578   1.402       .  A
C1577      H1584   1.083       .  S
C1578      S1580   1.802       .  S
S1579      H1582   1.406       .  S
S1580      H1581   1.407       .  S
C1585      C1590   1.412   1_455  A
C1586      C1587   1.400       .  A
C1586      H1595   1.084       .  S
C1587      S1591   1.802       .  S
C1588      C1589   1.404   1_455  A
C1589      C1590   1.399       .  A
C1589      H1596   1.083       .  S
C1590      S1592   1.804       .  S
S1591      H1594   1.405       .  S
S1592      H1593   1.407       .  S
O1598     Cu1605   2.016   1_565  S
O1599     Cu1605   2.005       .  S
O1601     Cu1606   2.015       .  S
O1603      C1608   1.278       .  A
O1604     Cu1606   2.006       .  S
C1607      C1816   1.478       .  S
C1609      C1792   1.478       .  S
O1611      C1621   1.278       .  A
O1612     Cu1619   2.010   1_655  S
O1613     Cu1619   2.016       .  S
O1615     Cu1620   2.013       .  S
O1617      C1622   1.278       .  A
O1618     Cu1620   2.010       .  S
C1621      C1729   1.482   1_565  S
C1623      C1756   1.480       .  S
C1624      C1768   1.478       .  S
O1625      C1635   1.277       .  A
O1626     Cu1633   2.006   1_556  S
O1626      C1636   1.278       .  A
O1627     Cu1633   2.011       .  S
O1629     Cu1634   2.019       .  S
O1632     Cu1634   2.011       .  S
C1635      C1720   1.481       .  S
C1636      C1705   1.482       .  S
C1637      C1813   1.475       .  S
O1639     Cu1647   2.015       .  S
O1640     Cu1647   2.013       .  S
O1641     Cu1647   2.009       .  S
O1642     Cu1647   2.017       .  S
O1643     Cu1648   2.003       .  S
O1643      C1652   1.277   1_655  A
O1644     Cu1648   2.011       .  S
O1644      C1651   1.278       .  A
O1645     Cu1648   2.014       .  S
O1645      C1650   1.278       .  A
O1646     Cu1648   2.013       .  S
O1646      C1649   1.279   1_655  A
C1650      C1765   1.477       .  S
C1651      C1717   1.482       .  S
C1652      C1708   1.479       .  S
O1653      C1663   1.278   1_565  A
O1654     Cu1661   1.992       .  S
O1654      C1664   1.276   1_565  A
O1655     Cu1661   2.016       .  S
O1657     Cu1662   2.010       .  S
O1660     Cu1662   2.007       .  S
C1663      C1681   1.488       .  S
C1664      C1693   1.480       .  S
C1665      C1780   1.477       .  S
C1666      C1789   1.478       .  S
O1667     Cu1675   2.015       .  S
O1668     Cu1675   2.017       .  S
O1669     Cu1675   1.993       .  S
O1670     Cu1675   1.994       .  S
O1671     Cu1676   1.998       .  S
O1671      C1680   1.276       .  A
O1672     Cu1676   2.004       .  S
O1672      C1679   1.277   1_565  A
O1673     Cu1676   2.006       .  S
O1673      C1678   1.277   1_565  A
O1674     Cu1676   2.011       .  S
O1674      C1677   1.277       .  A
C1677      C1744   1.480       .  S
C1678      C1732   1.477       .  S
C1679      C1684   1.486       .  S
C1680      C1696   1.484   1_565  S
C1681      C1682   1.407   1_545  A
C1682      C1683   1.395       .  A
C1682      H1691   1.084       .  S
C1683      C1684   1.416   1_565  A
C1683      S1687   1.802       .  S
C1685      C1686   1.398       .  A
C1685      H1692   1.084       .  S
C1686      S1688   1.801       .  S
S1687      H1690   1.408       .  S
S1688      H1689   1.408       .  S
C1693      C1694   1.405   1_545  A
C1694      C1695   1.401       .  A
C1694      H1703   1.081       .  S
C1695      C1696   1.418   1_565  A
C1695      S1699   1.810       .  S
C1697      C1698   1.394       .  A
C1697      H1704   1.084       .  S
C1698      S1700   1.803       .  S
S1699      H1702   1.406       .  S
S1700      H1701   1.408       .  S
C1705      C1710   1.415       .  A
C1706      C1707   1.402       .  A
C1706      H1715   1.084       .  S
C1707      S1711   1.803       .  S
C1708      C1709   1.403   1_455  A
C1709      C1710   1.398       .  A
C1709      H1716   1.084       .  S
C1710      S1712   1.803       .  S
S1711      H1714   1.406       .  S
S1712      H1713   1.408       .  S
C1717      C1718   1.405       .  A
C1718      C1719   1.404       .  A
C1718      H1727   1.084       .  S
C1719      C1720   1.414       .  A
C1719      S1723   1.808       .  S
C1721      C1722   1.399       .  A
C1721      H1728   1.085       .  S
C1722      S1724   1.803       .  S
S1723      H1726   1.407       .  S
S1724      H1725   1.406       .  S
C1729      C1730   1.403   1_545  A
C1730      C1731   1.398       .  A
C1730      H1739   1.084       .  S
C1731      C1732   1.412   1_565  A
C1731      S1735   1.802       .  S
C1733      C1734   1.401       .  A
C1733      H1740   1.083       .  S
C1734      S1736   1.800       .  S
S1735      H1738   1.407       .  S
S1736      H1737   1.406       .  S
C1741      C1746   1.414       .  A
C1742      C1743   1.400       .  A
C1742      H1751   1.084       .  S
C1743      S1747   1.803       .  S
C1744      C1745   1.404       .  A
C1745      C1746   1.402       .  A
C1745      H1752   1.084       .  S
C1746      S1748   1.804       .  S
S1747      H1750   1.407       .  S
S1748      H1749   1.407       .  S
C1753      C1754   1.403       .  A
C1754      C1755   1.402       .  A
C1754      H1763   1.084       .  S
C1755      C1756   1.416       .  A
C1755      S1759   1.803       .  S
C1757      C1758   1.400       .  A
C1757      H1764   1.084       .  S
C1758      S1760   1.803       .  S
S1759      H1762   1.407       .  S
S1760      H1761   1.407       .  S
C1765      C1770   1.414       .  A
C1766      C1767   1.400       .  A
C1766      H1775   1.083       .  S
C1767      S1771   1.803       .  S
C1768      C1769   1.405       .  A
C1769      C1770   1.401       .  A
C1769      H1776   1.083       .  S
C1770      S1772   1.803       .  S
S1771      H1774   1.407       .  S
S1772      H1773   1.406       .  S
C1778      C1779   1.402       .  A
C1778      H1787   1.081       .  S
C1779      S1783   1.809       .  S
C1781      C1782   1.402       .  A
C1781      H1788   1.083       .  S
C1782      S1784   1.803       .  S
S1783      H1786   1.407       .  S
S1784      H1785   1.407       .  S
C1790      C1791   1.401       .  A
C1790      H1799   1.084       .  S
C1791      C1792   1.414       .  A
C1791      S1795   1.802       .  S
C1793      C1794   1.398       .  A
C1793      H1800   1.084       .  S
C1794      S1796   1.804       .  S
S1795      H1798   1.406       .  S
S1796      H1797   1.407       .  S
C1802      C1803   1.400       .  A
C1802      H1811   1.083       .  S
C1803      S1807   1.804       .  S
C1805      C1806   1.402       .  A
C1805      H1812   1.083       .  S
C1806      S1808   1.803       .  S
S1807      H1810   1.405       .  S
S1808      H1809   1.407       .  S
C1813      C1818   1.412       .  A
C1814      C1815   1.400       .  A
C1814      H1823   1.084       .  S
C1815      S1819   1.801       .  S
C1816      C1817   1.404   1_455  A
C1817      C1818   1.398       .  A
C1817      H1824   1.083       .  S
C1818      S1820   1.804       .  S
S1819      H1822   1.404       .  S
S1820      H1821   1.407       .  S
