geometry optimzed in LAMMPS
_audit_creation_date              2020-11-30 
_audit_creation_method            'lammps2cif' 
_symmetry_space_group_name_H-M    'P1' 
_symmetry_Int_Tables_number       1 
_symmetry_cell_setting            triclinic 
loop_ 
_symmetry_equiv_pos_as_xyz 
  x,y,z 
_cell_length_a                    22.18275413 
_cell_length_b                    22.333537081675818 
_cell_length_c                    22.325839012640323 
_cell_angle_alpha                 90.21281935361407 
_cell_angle_beta                  88.67532602836114 
_cell_angle_gamma                 89.67078072885867 
loop_ 
_atom_site_label 
_atom_site_type_symbol 
_atom_site_fract_x 
_atom_site_fract_y 
_atom_site_fract_z 
_atom_site_charge 
C1          C  0.93158828  0.71824560  0.50848632     0.86000
C2          C  0.93148835  0.75738835  0.45305685    -0.54200
C3          C  0.98112245  0.79111853  0.44250455     0.08900
C4          C  0.02801370  0.78584090  0.49574806     0.19900
C5          C  0.99359577  0.68274813  0.50281594    -0.55000
C6          C  0.04504448  0.71881851  0.49590962     0.09000
C7          C  0.94097078  0.76039889  0.56057697    -0.54500
C8          C  0.99276880  0.79267684  0.55861499     0.09600
H9          H  0.89553737  0.75479193  0.42093009     0.14100
H10         H  0.06761411  0.81570744  0.49071480    -0.00200
H11         H  0.99629643  0.63430701  0.50526135     0.14400
H12         H  0.91187416  0.75859836  0.60042739     0.14200
C13         C  0.42784615  0.00245040  0.22257365     0.86000
C14         C  0.43398481  0.05421913  0.26559751    -0.54200
C15         C  0.48775533  0.05922652  0.29303310     0.08900
C16         C  0.52971504  0.00172699  0.28090632     0.19900
C17         C  0.48683003  0.00566947  0.18158932    -0.55000
C18         C  0.54104781  0.00492033  0.21265840     0.09000
C19         C  0.43721342  0.94633015  0.25950736    -0.54500
C20         C  0.49061033  0.94185049  0.28816316     0.09600
H21         H  0.39977815  0.08930304  0.26784311     0.14100
H22         H  0.57181618  0.00145806  0.30681395    -0.00200
H23         H  0.48551422  0.00799518  0.13310551     0.14400
H24         H  0.40532548  0.90966897  0.25850016     0.14200
C25         C  0.57570088  0.99898465  0.77535193     0.86000
C26         C  0.56640924  0.05310357  0.73559674    -0.54200
C27         C  0.51196507  0.05778375  0.70936853     0.08900
C28         C  0.47237810  0.99932522  0.71961809     0.19900
C29         C  0.51750790  0.99932754  0.81801207    -0.55000
C30         C  0.46270007  0.99991068  0.78775917     0.09000
C31         C  0.56681375  0.94455486  0.73587767    -0.54500
C32         C  0.51240476  0.94024840  0.70943274     0.09600
H33         H  0.59851738  0.08961184  0.73455012     0.14100
H34         H  0.42978360  0.99935011  0.69448082    -0.00200
H35         H  0.51970937  0.99963146  0.86650917     0.14400
H36         H  0.59936910  0.90794373  0.73492845     0.14200
C37         C  0.78702078  0.56414092  0.99842514     0.86000
C38         C  0.75990253  0.55633107  0.06069506    -0.54200
C39         C  0.72864423  0.50522961  0.07086017     0.08900
C40         C  0.72367397  0.46568352  0.01112480     0.19900
C41         C  0.82378820  0.50370383  0.98695634    -0.55000
C42         C  0.78975271  0.45117664  0.99420101     0.09000
C43         C  0.73496727  0.55971694  0.95610094    -0.54500
C44         C  0.70386256  0.50781087  0.95739619     0.09600
H45         H  0.76758425  0.58906500  0.09585913     0.14100
H46         H  0.69520063  0.42531394  0.01692154    -0.00200
H47         H  0.87150036  0.50287369  0.97514734     0.14400
H48         H  0.72934742  0.59207366  0.92028456     0.14200
C49         C  0.21338059  0.57290053  0.99750958     0.86000
C50         C  0.25199794  0.56634134  0.94107008    -0.54200
C51         C  0.28393318  0.51465420  0.93513790     0.08900
C52         C  0.28018769  0.47509207  0.99477582     0.19900
C53         C  0.17664223  0.51194330  0.99995423    -0.55000
C54         C  0.21244874  0.45962276  0.99850284     0.09000
C55         C  0.25599020  0.56827200  0.04879555    -0.54500
C56         C  0.28908454  0.51740779  0.05205285     0.09600
H57         H  0.24847752  0.59806049  0.90449009     0.14100
H58         H  0.30986079  0.43490231  0.99349202    -0.00200
H59         H  0.12775494  0.51065476  0.00166628     0.14400
H60         H  0.25618791  0.60232590  0.08379304     0.14200
C61         C  0.06833373  0.28966773  0.48876867     0.86000
C62         C  0.05772813  0.25501615  0.43194215    -0.54200
C63         C  0.00722211  0.22108790  0.43123925     0.08900
C64         C  0.97328959  0.21991779  0.49567032     0.21100
C65         C  0.00596665  0.32332490  0.50180213    -0.55000
C66         C  0.95510593  0.28591155  0.50491817     0.09000
C67         C  0.07135184  0.24336581  0.53777490    -0.54500
C68         C  0.02149158  0.20995625  0.54741641     0.09600
H69         H  0.08650920  0.26137534  0.39238747     0.14100
H70         H  0.93446552  0.18882238  0.49802795    -0.00200
H71         H  0.00265108  0.37155336  0.50694019     0.14400
H72         H  0.10827381  0.24320202  0.56891993     0.14200
In73       In  0.86052530  0.74303063  0.99575524     1.36900
C74         C  0.84399681  0.81950032  0.09045994     0.77100
O75         O  0.93614946  0.71741542  0.04775284    -0.61400
O76         O  0.94099872  0.71141637  0.95051233    -0.52300
C77         C  0.81542765  0.62734611  0.99447467     0.69700
O78         O  0.85557994  0.64492814  0.02882589    -0.47100
C79         C  0.86858534  0.81645762  0.89798574     0.74500
O80         O  0.80065058  0.79431054  0.06415052    -0.59000
O81         O  0.91364375  0.79147211  0.92008829    -0.49100
O82         O  0.89450575  0.80671843  0.06730969    -0.55400
C83         C  0.96719156  0.70975558  0.00016840     0.84600
O84         O  0.79569027  0.66983057  0.96250456    -0.57300
O85         O  0.81994347  0.80490091  0.92684250    -0.60600
In86       In  0.13551384  0.75008143  0.00582350     1.36900
C87         C  0.15250331  0.82933890  0.91809896     0.77100
O88         O  0.06032964  0.72253313  0.95413308    -0.61400
O89         O  0.05545693  0.71998604  0.05136041    -0.52300
C90         C  0.18385284  0.63598905  0.00037118     0.69700
O91         O  0.19363572  0.67635591  0.96167110    -0.47100
C92         C  0.13789523  0.82492527  0.09808105     0.74500
O93         O  0.19061541  0.81929544  0.95850477    -0.59000
O94         O  0.08950214  0.81107785  0.07345315    -0.49100
O95         O  0.10313052  0.80239891  0.92588493    -0.55400
C96         C  0.02999453  0.71365962  0.00182116     0.84600
O97         O  0.15414621  0.65586917  0.04492523    -0.57300
O98         O  0.18507083  0.80158717  0.07412417    -0.60600
In99       In  0.75488019  0.00012991  0.84828372     1.36900
C100        C  0.83226814  0.09411654  0.84512198     0.77100
O101        O  0.71759052  0.04739714  0.92564904    -0.61400
O102        O  0.72918126  0.95130983  0.92812251    -0.52300
C103        C  0.64058809  0.99856509  0.80043867     0.69700
O104        O  0.68020613  0.03776562  0.78841379    -0.47100
C105        C  0.83458378  0.90864861  0.84022709     0.74500
O106        O  0.83025404  0.05435120  0.80449663    -0.59000
O107        O  0.81619053  0.93122358  0.88911295    -0.49100
O108        O  0.79497221  0.08512924  0.88750698    -0.55400
C109        C  0.71366399  0.99908838  0.95459953     0.84600
O110        O  0.66186624  0.95666461  0.83102192    -0.57300
O111        O  0.81320013  0.93419577  0.79440355    -0.60600
In112      In  0.71915273  0.00458811  0.12761718     1.36900
C113        C  0.80009463  0.09584012  0.12624191     0.77100
O114        O  0.80837757  0.96381736  0.15688590    -0.61400
O115        O  0.74773108  0.90881056  0.11110771    -0.52300
C116        C  0.60460760  0.00667816  0.18452728     0.69700
O117        O  0.65349205  0.00047776  0.21243000    -0.47100
C118        C  0.70255248  0.99959010  0.01700599     0.74500
O119        O  0.79008499  0.06157274  0.17056519    -0.59000
O120        O  0.70799558  0.95213618  0.04709817    -0.49100
O121        O  0.76592091  0.08522235  0.08334195    -0.55400
C122        C  0.79872495  0.91294570  0.13490563     0.84600
O123        O  0.61468285  0.01413254  0.12972107    -0.57300
O124        O  0.69783849  0.04876321  0.04497445    -0.60600
C125        C  0.86990767  0.84917218  0.83708613    -0.03000
C126        C  0.63433256  0.64677597  0.67427901    -0.03000
In127      In  0.03080821  0.86300953  0.73166081     1.36900
C128        C  0.12269158  0.85687162  0.81031128     0.77100
O129        O  0.07984732  0.94275510  0.70361437    -0.61400
O130        O  0.98282265  0.93944148  0.69930129    -0.52300
C131        C  0.01545194  0.81236959  0.61978006     0.69700
O132        O  0.05412233  0.85214408  0.62868608    -0.47100
C133        C  0.93287420  0.85732398  0.80736268     0.74500
O134        O  0.11789806  0.82342250  0.76437848    -0.59000
O135        O  0.94452042  0.90107986  0.77365309    -0.49100
O136        O  0.08125917  0.89533095  0.81452420    -0.55400
C137        C  0.03058253  0.96920314  0.69428588     0.84600
O138        O  0.99316004  0.79244465  0.66869171    -0.57300
O139        O  0.97309701  0.81654709  0.80424704    -0.60600
In140      In  0.01946959  0.13804841  0.72676988     1.36900
C141        C  0.92892145  0.14511118  0.80679976     0.77100
O142        O  0.97652109  0.05712335  0.70037004    -0.61400
O143        O  0.07399171  0.06344670  0.69451997    -0.52300
C144        C  0.01532900  0.18792334  0.61259008     0.69700
O145        O  0.96966007  0.16472785  0.63738782    -0.47100
C146        C  0.10818750  0.14223857  0.80968714     0.74500
O147        O  0.96150502  0.18932701  0.79154799    -0.59000
O148        O  0.09920951  0.09737847  0.77668016    -0.49100
O149        O  0.94477056  0.09649575  0.78228960    -0.55400
C150        C  0.02706239  0.03191090  0.69191747     0.84600
O151        O  0.05822279  0.19225727  0.64909411    -0.57300
O152        O  0.07198435  0.18508953  0.79922183    -0.60600
C153        C  0.13751520  0.16242324  0.14704258    -0.03000
C154        C  0.36481359  0.35360682  0.33185869    -0.03000
In155      In  0.48334205  0.76167820  0.64284203     1.36900
C156        C  0.38697472  0.68623800  0.64841980     0.77100
O157        O  0.44297090  0.78737497  0.55773903    -0.61400
O158        O  0.53916879  0.78780279  0.56579742    -0.52300
C159        C  0.49412443  0.87668036  0.69081364     0.69700
O160        O  0.45552696  0.86370172  0.65253660    -0.47100
C161        C  0.57531874  0.68204782  0.66168403     0.74500
O162        O  0.39278860  0.73326543  0.68000199    -0.59000
O163        O  0.56997144  0.71334774  0.61512297    -0.49100
O164        O  0.43052714  0.67846631  0.61219409    -0.55400
C165        C  0.49415127  0.79450594  0.53325880     0.84600
O166        O  0.52048237  0.83000927  0.70986316    -0.57300
O167        O  0.53228956  0.69092357  0.69930826    -0.60600
In168      In  0.51674062  0.76450104  0.36221915     1.36900
C169        C  0.42438708  0.68485934  0.35440154     0.77100
O170        O  0.59202022  0.71007385  0.31426843    -0.61400
O171        O  0.58359442  0.70415955  0.40818345    -0.52300
C172        C  0.50700931  0.87866128  0.31063364     0.69700
O173        O  0.47564085  0.83317453  0.29829825    -0.47100
C174        C  0.50157573  0.79848816  0.47002365     0.74500
O175        O  0.45852282  0.69966203  0.31038183    -0.59000
O176        O  0.55355280  0.79673277  0.44576161    -0.49100
O177        O  0.43995147  0.70776596  0.40310525    -0.55400
C178        C  0.61141056  0.68632401  0.36187421     0.84600
O179        O  0.54975699  0.86455722  0.34417114    -0.57300
O180        O  0.45709650  0.79166727  0.43653727    -0.60600
C181        C  0.13983957  0.85690679  0.15805713    -0.03000
C182        C  0.36147910  0.65809437  0.34523569    -0.03000
In183      In  0.98440692  0.87147278  0.26603211     1.36900
C184        C  0.89561910  0.86571988  0.18265282     0.77100
O185        O  0.93078643  0.94914993  0.29495422    -0.61400
O186        O  0.02818647  0.95232674  0.29305301    -0.52300
C187        C  0.98624900  0.81821126  0.37939411     0.69700
O188        O  0.94393699  0.81486453  0.34224190    -0.47100
C189        C  0.07919390  0.86375980  0.19048208     0.74500
O190        O  0.92788271  0.82144399  0.19837417    -0.59000
O191        O  0.06117804  0.91254961  0.21264883    -0.49100
O192        O  0.90947559  0.91340524  0.20912766    -0.55400
C193        C  0.97846081  0.97965502  0.29763486     0.84600
O194        O  0.03106441  0.84485576  0.35689517    -0.57300
O195        O  0.04700508  0.81930211  0.20565241    -0.60600
In196      In  0.97837020  0.14973552  0.25514497     1.36900
C197        C  0.07579696  0.15319974  0.17847665     0.77100
O198        O  0.02590328  0.06997313  0.28038345    -0.61400
O199        O  0.92860172  0.07147925  0.28715575    -0.52300
C200        C  0.98823293  0.20081735  0.36855803     0.69700
O201        O  0.01528883  0.21836055  0.32107395    -0.47100
C202        C  0.88923483  0.15305799  0.17383634     0.74500
O203        O  0.06984321  0.11743277  0.22173098    -0.59000
O204        O  0.91346269  0.10519115  0.19087115    -0.49100
O205        O  0.03103118  0.18811006  0.17380226    -0.55400
C206        C  0.97741110  0.04264152  0.29173690     0.84600
O207        O  0.94773017  0.16375249  0.35678465    -0.57300
O208        O  0.90978415  0.19946195  0.19958449    -0.60600
In209      In  0.37387788  0.50735426  0.22403028     1.36900
C210        C  0.37027950  0.41260195  0.29806421     0.77100
O211        O  0.45480049  0.45873516  0.19783065    -0.61400
O212        O  0.45751065  0.55511583  0.20329460    -0.52300
C213        C  0.31699694  0.50693004  0.11335427     0.69700
O214        O  0.35933549  0.47167045  0.12489624    -0.47100
C215        C  0.36693107  0.60130041  0.30448238     0.74500
O216        O  0.32410151  0.44023477  0.27928173    -0.59000
O217        O  0.39744016  0.60131243  0.25593868    -0.49100
O218        O  0.41922570  0.43482084  0.28049434    -0.55400
C219        C  0.48555256  0.50585235  0.19946843     0.84600
O220        O  0.30116650  0.53723588  0.15929752    -0.57300
O221        O  0.33683838  0.55367882  0.31107347    -0.60600
In222      In  0.65428094  0.49499252  0.24967897     1.36900
C223        C  0.65821836  0.40674800  0.33151592     0.77100
O224        O  0.68947470  0.54085161  0.33304942    -0.61400
O225        O  0.62389743  0.58626657  0.28368383    -0.52300
C226        C  0.70828203  0.49432490  0.13613394     0.69700
O227        O  0.67650040  0.45156898  0.15499326    -0.47100
C228        C  0.54801689  0.50208776  0.21052873     0.74500
O229        O  0.70517012  0.43176942  0.30957536    -0.59000
O230        O  0.57863851  0.54847538  0.21925124    -0.49100
O231        O  0.60957756  0.42741021  0.31157529    -0.55400
C232        C  0.65692665  0.58719623  0.32884633     0.84600
O233        O  0.72023607  0.53059779  0.17815658    -0.57300
O234        O  0.57244463  0.45216630  0.22123186    -0.60600
C235        C  0.83645371  0.85747164  0.14806409    -0.03000
C236        C  0.66746842  0.64485040  0.36436187    -0.03000
In237      In  0.86269905  0.27060928  0.98635385     1.36900
C238        C  0.86616206  0.18950507  0.89658278     0.77100
O239        O  0.94503009  0.29623864  0.93933152    -0.61400
O240        O  0.94208418  0.29379460  0.03620301    -0.52300
C241        C  0.81203088  0.38616310  0.98782400     0.69700
O242        O  0.78943311  0.34191974  0.01578995    -0.47100
C243        C  0.84931693  0.19065739  0.07607560     0.74500
O244        O  0.81767996  0.21366183  0.91711350    -0.59000
O245        O  0.88394324  0.23534838  0.07767264    -0.49100
O246        O  0.91277343  0.20711341  0.92201877    -0.55400
C247        C  0.97231777  0.30098267  0.98807619     0.84600
O248        O  0.85530979  0.36986750  0.95424771    -0.57300
O249        O  0.81958040  0.18772077  0.02859221    -0.60600
In250      In  0.14597020  0.27501189  0.99108031     1.36900
C251        C  0.13926855  0.19720745  0.08715800     0.77100
O252        O  0.06348568  0.30167218  0.03749291    -0.61400
O253        O  0.06691497  0.29756075  0.94026358    -0.52300
C254        C  0.19037814  0.39420036  0.99596092     0.69700
O255        O  0.21895211  0.34859436  0.01450129    -0.47100
C256        C  0.16183620  0.19581655  0.89659675     0.74500
O257        O  0.18791337  0.21172447  0.05983699    -0.59000
O258        O  0.11179345  0.21144956  0.91885708    -0.49100
O259        O  0.09436310  0.22285801  0.06576741    -0.55400
C260        C  0.03604724  0.30351154  0.98843420     0.84600
O261        O  0.14182349  0.37869577  0.97297374    -0.57300
O262        O  0.20532401  0.22244234  0.92112149    -0.60600
In263      In  0.75720826  0.63283774  0.52546794     1.36900
C264        C  0.68979108  0.63751375  0.42773554     0.77100
O265        O  0.78956530  0.55482769  0.47739585    -0.61400
O266        O  0.78758389  0.55426491  0.57421288    -0.52300
C267        C  0.86964666  0.68640049  0.51621205     0.69700
O268        O  0.82680622  0.69399629  0.48065123    -0.47100
C269        C  0.67264576  0.64190306  0.61546853     0.74500
O270        O  0.70015785  0.68247816  0.46076912    -0.59000
O271        O  0.68978593  0.59290949  0.59297716    -0.49100
O272        O  0.71031564  0.58898327  0.44736154    -0.55400
C273        C  0.79492432  0.52606269  0.52546102     0.84600
O274        O  0.85346055  0.65515375  0.56061683    -0.57300
O275        O  0.69758020  0.68684579  0.59059032    -0.60600
In276      In  0.77065240  0.35344244  0.51934067     1.36900
C277        C  0.69602271  0.35506996  0.42473327     0.77100
O278        O  0.70525107  0.30131052  0.58045456    -0.61400
O279        O  0.70639375  0.39489561  0.59070565    -0.52300
C280        C  0.88881818  0.30561189  0.51426763     0.69700
O281        O  0.84287255  0.27740865  0.49617403    -0.47100
C282        C  0.79660051  0.46287172  0.52385708     0.74500
O283        O  0.68573052  0.32461226  0.47118586    -0.59000
O284        O  0.79258007  0.43237428  0.57142932    -0.49100
O285        O  0.74585423  0.38191979  0.42574468    -0.55400
C286        C  0.68178054  0.34683620  0.60696286     0.84600
O287        O  0.87327605  0.35317742  0.54043663    -0.57300
O288        O  0.79168380  0.43585542  0.47441420    -0.60600
C289        C  0.83395497  0.15504183  0.13270930    -0.03000
C290        C  0.66132193  0.34787134  0.36687877    -0.03000
In291      In  0.50945013  0.23617670  0.36609091     1.36900
C292        C  0.42226407  0.31948873  0.34882371     0.77100
O293        O  0.45343156  0.21337701  0.44315179    -0.61400
O294        O  0.54986951  0.20131858  0.44656911    -0.52300
C295        C  0.50226448  0.12314390  0.31383075     0.69700
O296        O  0.46364519  0.16486750  0.31111849    -0.47100
C297        C  0.60124991  0.31404768  0.36987093     0.74500
O298        O  0.42145655  0.28166700  0.39079045    -0.59000
O299        O  0.57893900  0.29127224  0.41681895    -0.49100
O300        O  0.46921360  0.31568876  0.31562771    -0.55400
C301        C  0.49906032  0.19970878  0.47293317     0.84600
O302        O  0.55080243  0.14187165  0.33524184    -0.57300
O303        O  0.57549580  0.29722257  0.32231396    -0.60600
In304      In  0.48312570  0.23494801  0.64127763     1.36900
C305        C  0.38887776  0.31124833  0.63491796     0.77100
O306        O  0.53906240  0.30107385  0.69388397    -0.61400
O307        O  0.56184515  0.28995808  0.60209051    -0.52300
C308        C  0.49369931  0.12148454  0.69116321     0.69700
O309        O  0.44885753  0.13628708  0.66082805    -0.47100
C310        C  0.49442888  0.19635429  0.53590758     0.74500
O311        O  0.40415930  0.28637569  0.68358112    -0.59000
O312        O  0.54027946  0.20572083  0.56692829    -0.49100
O313        O  0.42173217  0.29697773  0.59064928    -0.55400
C314        C  0.57507926  0.31459817  0.65082517     0.84600
O315        O  0.52571625  0.16653046  0.70332504    -0.57300
O316        O  0.44337236  0.19789790  0.56192333    -0.60600
C317        C  0.86787830  0.15319000  0.83821882    -0.03000
C318        C  0.63740789  0.34220069  0.66186584    -0.03000
In319      In  0.28374855  0.00315134  0.86571226     1.36900
C320        C  0.20353039  0.09577138  0.85888147     0.77100
O321        O  0.24027878  0.92799050  0.81346853    -0.61400
O322        O  0.21927973  0.93625191  0.90622008    -0.52300
C323        C  0.39922461  0.00107478  0.81492329     0.69700
O324        O  0.35221057  0.01435667  0.78617339    -0.47100
C325        C  0.30335008  0.00497354  0.97619006     0.74500
O326        O  0.25420047  0.09927384  0.88308610    -0.59000
O327        O  0.30386890  0.95600880  0.94766380    -0.49100
O328        O  0.19438124  0.04494684  0.83619212    -0.55400
C329        C  0.21074654  0.90792533  0.85846007     0.84600
O330        O  0.38705632  0.98782187  0.86830953    -0.57300
O331        O  0.30011789  0.05287781  0.94665764    -0.60600
In332      In  0.25134095  0.00900323  0.14454316     1.36900
C333        C  0.17273059  0.10251137  0.14568219     0.77100
O334        O  0.28465925  0.05499602  0.06577788    -0.61400
O335        O  0.28549991  0.95832398  0.06771331    -0.52300
C336        C  0.36413416  0.00505905  0.19524076     0.69700
O337        O  0.34402256  0.04957609  0.16746074    -0.47100
C338        C  0.17433500  0.91626510  0.15150295     0.74500
O339        O  0.19253312  0.07809051  0.19287189    -0.59000
O340        O  0.20653643  0.92779060  0.10582007    -0.49100
O341        O  0.19191194  0.07787087  0.09818831    -0.55400
C342        C  0.29435771  0.00605915  0.03889169     0.84600
O343        O  0.32411802  0.96551594  0.20301756    -0.57300
O344        O  0.18001193  0.95396062  0.19372914    -0.60600
In345      In  0.62774727  0.49005258  0.78259867     1.36900
C346        C  0.63153519  0.39907762  0.70116408     0.77100
O347        O  0.54798649  0.43799313  0.80438110    -0.61400
O348        O  0.54494050  0.53475441  0.80696393    -0.52300
C349        C  0.67565329  0.49445788  0.89727371     0.69700
O350        O  0.69388032  0.45656506  0.85832096    -0.47100
C351        C  0.63025216  0.58656293  0.70763436     0.74500
O352        O  0.66617439  0.44399455  0.69755126    -0.59000
O353        O  0.58199422  0.56462474  0.72789181    -0.49100
O354        O  0.59823235  0.40004559  0.74764642    -0.55400
C355        C  0.51733288  0.48566891  0.80702368     0.84600
O356        O  0.63786632  0.53000306  0.87591880    -0.57300
O357        O  0.67692437  0.55825837  0.72468059    -0.60600
In358      In  0.35092899  0.48883874  0.75532056     1.36900
C359        C  0.33901953  0.40216068  0.67459453     0.77100
O360        O  0.30075900  0.54495325  0.68866821    -0.61400
O361        O  0.39139651  0.56826345  0.70439689    -0.52300
C362        C  0.30277768  0.49868212  0.87049966     0.69700
O363        O  0.33475977  0.45457644  0.85422222    -0.47100
C364        C  0.45537037  0.48531085  0.79582943     0.74500
O365        O  0.30342011  0.41037389  0.71936351    -0.59000
O366        O  0.42743777  0.53413495  0.78992920    -0.49100
O367        O  0.38285231  0.43748312  0.67288595    -0.55400
C368        C  0.34374103  0.58108578  0.67723859     0.84600
O369        O  0.28875035  0.53134743  0.82623919    -0.57300
O370        O  0.42898673  0.43755560  0.78176465    -0.60600
C371        C  0.16804717  0.15210588  0.84251969    -0.03000
C372        C  0.33257979  0.35101675  0.62966366    -0.03000
In373      In  0.24162617  0.37489181  0.47486120     1.36900
C374        C  0.31647050  0.36774450  0.56671435     0.77100
O375        O  0.29600866  0.31750026  0.41111333    -0.61400
O376        O  0.30823172  0.41167906  0.40766229    -0.52300
C377        C  0.12980604  0.32217782  0.48341039     0.69700
O378        O  0.17343562  0.31148517  0.51745355    -0.47100
C379        C  0.20334500  0.48082499  0.47599282     0.74500
O380        O  0.31141214  0.32714966  0.52742061    -0.59000
O381        O  0.21380838  0.45455971  0.42652016    -0.49100
O382        O  0.28691526  0.41465968  0.55588179    -0.55400
C383        C  0.32377687  0.36117449  0.38719476     0.84600
O384        O  0.14493840  0.35650946  0.44114169    -0.57300
O385        O  0.20852371  0.45101668  0.52355233    -0.60600
In386      In  0.23016862  0.65043545  0.49225024     1.36900
C387        C  0.29764951  0.64706324  0.59340825     0.77100
O388        O  0.20054338  0.56816914  0.53098544    -0.61400
O389        O  0.20501365  0.57653771  0.43404160    -0.52300
C390        C  0.11102763  0.69700072  0.49418451     0.69700
O391        O  0.15659113  0.72613527  0.47469225    -0.47100
C392        C  0.31931061  0.65369053  0.40207869     0.74500
O393        O  0.27673968  0.69513217  0.57164022    -0.59000
O394        O  0.28784275  0.60866470  0.41430012    -0.49100
O395        O  0.28410058  0.60162940  0.56370181    -0.55400
C396        C  0.19866972  0.54368571  0.47993562     0.84600
O397        O  0.12679752  0.64706320  0.51380606    -0.57300
O398        O  0.30424581  0.69825546  0.43501702    -0.60600
C399        C  0.17346495  0.85088626  0.85672201    -0.03000
C400        C  0.33140404  0.64414781  0.65278763    -0.03000
C401        C  0.21346952  0.79880068  0.84075338    -0.05700
C402        C  0.27579667  0.79801556  0.85284476    -0.05700
C403        C  0.30998989  0.74842304  0.83642008    -0.23800
C404        C  0.28262563  0.70507211  0.80131335     0.18400
C405        C  0.21943241  0.70234674  0.79735298     0.15600
C406        C  0.18557988  0.74432128  0.82699310    -0.18900
C407        C  0.19234774  0.67046789  0.75158118    -0.20700
C408        C  0.22763801  0.65532871  0.70198070    -0.13300
C409        C  0.29057172  0.66479845  0.70296616     0.03400
C410        C  0.31693884  0.67699421  0.75843111    -0.25400
H411        H  0.29813363  0.83546630  0.87353261     0.08500
H412        H  0.35850984  0.74981728  0.84112166     0.12100
H413        H  0.13688808  0.74000771  0.82806748     0.12000
H414        H  0.14372959  0.66700100  0.74906519     0.11800
H415        H  0.20585603  0.63634001  0.66347762     0.12300
H416        H  0.36526781  0.67386729  0.76419320     0.14300
C417        C  0.27704103  0.31634615  0.64490300    -0.05700
C418        C  0.22242793  0.34510914  0.66208890    -0.05700
C419        C  0.18500614  0.31584791  0.70236244    -0.23800
C420        C  0.20223891  0.25851944  0.71964042     0.18400
C421        C  0.24411433  0.22521371  0.68409203     0.15600
C422        C  0.27800847  0.25425106  0.64177439    -0.18900
C423        C  0.26070268  0.16774517  0.69912131    -0.20700
C424        C  0.24088104  0.14544537  0.75293179    -0.13300
C425        C  0.20390609  0.18065458  0.79275479     0.03400
C426        C  0.18511592  0.23760797  0.77483914    -0.25400
H427        H  0.21497609  0.39235015  0.65405997     0.08500
H428        H  0.14926213  0.34039251  0.72571000     0.12100
H429        H  0.31337567  0.23023647  0.61719142     0.12000
H430        H  0.29186530  0.14157035  0.67132209     0.11800
H431        H  0.25441466  0.09992745  0.76152892     0.12300
H432        H  0.15489997  0.26450072  0.80295664     0.14300
C433        C  0.66994667  0.29764058  0.69887258    -0.05700
C434        C  0.65925605  0.23542732  0.69238402    -0.05700
C435        C  0.69986302  0.19449317  0.71235400    -0.23800
C436        C  0.75216289  0.21488070  0.73770948     0.18400
C437        C  0.76437724  0.27641565  0.74323072     0.15600
C438        C  0.72320976  0.31707218  0.72484640    -0.18900
C439        C  0.81762457  0.29651125  0.76724376    -0.20700
C440        C  0.85454612  0.25543684  0.79329596    -0.13300
C441        C  0.83771836  0.19414885  0.79531640     0.03400
C442        C  0.79088068  0.17414547  0.76034524    -0.25400
H443        H  0.62222630  0.21735221  0.66795475     0.08500
H444        H  0.69090450  0.14711834  0.70694236     0.12100
H445        H  0.73515922  0.36395236  0.72662373     0.12000
H446        H  0.82846726  0.34373953  0.76970011     0.11800
H447        H  0.89281581  0.27233283  0.81727607     0.12300
H448        H  0.78022820  0.12762034  0.75435223     0.14300
C449        C  0.69744791  0.30455049  0.33011258    -0.05700
C450        C  0.72338284  0.25348143  0.35712518    -0.05700
C451        C  0.74657376  0.20812685  0.32230350    -0.23800
C452        C  0.74359881  0.21335890  0.26072124     0.18400
C453        C  0.71238266  0.26053050  0.23351455     0.15600
C454        C  0.68926528  0.30512952  0.26801828    -0.18900
C455        C  0.70890429  0.26505334  0.17174634    -0.20700
C456        C  0.74623576  0.22941115  0.13724005    -0.13300
C457        C  0.78619704  0.18939998  0.16551517     0.03400
C458        C  0.77730190  0.17592906  0.22611235    -0.25400
H459        H  0.72511133  0.24743159  0.40497855     0.08500
H460        H  0.76902709  0.17065183  0.34328434     0.12100
H461        H  0.66350262  0.33970360  0.24603465     0.12000
H462        H  0.68190462  0.29928581  0.15057864     0.11800
H463        H  0.74501222  0.23575615  0.08945708     0.12300
H464        H  0.80263255  0.14060439  0.24760847     0.14300
C465        C  0.72033731  0.67529666  0.33453522    -0.05700
C466        C  0.76541811  0.64391848  0.30084429    -0.05700
C467        C  0.79932656  0.67397287  0.25836971    -0.23800
C468        C  0.78972561  0.73500696  0.25198215     0.18400
C469        C  0.75604315  0.76744813  0.29578123     0.15600
C470        C  0.72466176  0.73729712  0.33950001    -0.18900
C471        C  0.74886106  0.82876360  0.29179339    -0.20700
C472        C  0.77146120  0.85738929  0.24209572    -0.13300
C473        C  0.80030064  0.82467470  0.19459455     0.03400
C474        C  0.81093509  0.76339295  0.20151965    -0.25400
H475        H  0.77194808  0.59620536  0.30316931     0.08500
H476        H  0.82892650  0.64907212  0.22788877     0.12100
H477        H  0.69650917  0.76218150  0.37137323     0.12000
H478        H  0.72463188  0.85428542  0.32615697     0.11800
H479        H  0.76729595  0.90559008  0.24218508     0.12300
H480        H  0.83754287  0.73810052  0.16875243     0.14300
C481        C  0.17291334  0.81352924  0.19689059    -0.05700
C482        C  0.15509047  0.75254975  0.19765382    -0.05700
C483        C  0.18908928  0.71026397  0.22611047    -0.23800
C484        C  0.24028670  0.72849244  0.25535043     0.18400
C485        C  0.25567843  0.78952837  0.25887914     0.15600
C486        C  0.22206959  0.83140269  0.23016873    -0.18900
C487        C  0.30480884  0.80831514  0.29090479    -0.20700
C488        C  0.33995166  0.76629123  0.31784225    -0.13300
C489        C  0.32825873  0.70432940  0.31046302     0.03400
C490        C  0.27627420  0.68648857  0.28124820    -0.25400
H491        H  0.11662447  0.73705480  0.17306229     0.08500
H492        H  0.17626606  0.66353628  0.22394909     0.12100
H493        H  0.23636782  0.87722105  0.23337640     0.12000
H494        H  0.31537999  0.85536957  0.29606871     0.11800
H495        H  0.37499389  0.78324339  0.34582558     0.12300
H496        H  0.26281924  0.63991793  0.28003612     0.14300
C497        C  0.17152278  0.20446402  0.18595656    -0.05700
C498        C  0.14216613  0.25122943  0.21840211    -0.05700
C499        C  0.17515286  0.29201918  0.24968154    -0.23800
C500        C  0.23749410  0.28713577  0.24810513     0.18400
C501        C  0.26748558  0.24350610  0.21283444     0.15600
C502        C  0.23462108  0.20395563  0.18073109    -0.18900
C503        C  0.32995163  0.23937791  0.21073516    -0.20700
C504        C  0.36250695  0.27545625  0.24785143    -0.13300
C505        C  0.33231418  0.31534987  0.28789988     0.03400
C506        C  0.27009476  0.32435396  0.28290100    -0.25400
H507        H  0.09402029  0.25767786  0.21970789     0.08500
H508        H  0.15196744  0.32656459  0.27575116     0.12100
H509        H  0.25852923  0.17251432  0.15150416     0.12000
H510        H  0.35338927  0.20716278  0.18199029     0.11800
H511        H  0.41074575  0.27078621  0.24459824     0.12300
H512        H  0.24629281  0.35878719  0.30860340     0.14300
C513        C  0.83396502  0.80781418  0.79832091    -0.05700
C514        C  0.86101857  0.76786793  0.75618025    -0.05700
C515        C  0.82768341  0.72375542  0.73006642    -0.23800
C516        C  0.76659197  0.72019101  0.74378313     0.18400
C517        C  0.73822159  0.76035381  0.78412191     0.15600
C518        C  0.77175987  0.80353966  0.81100433    -0.18900
C519        C  0.67671924  0.75645247  0.79710599    -0.20700
C520        C  0.64246163  0.71733093  0.76437802    -0.13300
C521        C  0.66984757  0.68331162  0.71761412     0.03400
C522        C  0.73287434  0.67896453  0.71472893    -0.25400
H523        H  0.90784079  0.76813478  0.74336205     0.08500
H524        H  0.84944213  0.69328226  0.69826142     0.12100
H525        H  0.74947812  0.83316311  0.84327013     0.12000
H526        H  0.65497701  0.78489237  0.83072491     0.11800
H527        H  0.59512531  0.71517125  0.77570325     0.12300
H528        H  0.75592808  0.64652681  0.68594616     0.14300
loop_ 
_geom_bond_atom_site_label_1 
_geom_bond_atom_site_label_2 
_geom_bond_distance 
_geom_bond_site_symmetry_2 
_ccdc_geom_bond_type 
C1            C2   1.518       .  S
C1            C7   1.512       .  S
C1            C5   1.586       .  S
C1          C267   1.557       .  S
C2            H9   1.087       .  S
C2            C3   1.354       .  D
C3            C4   1.602   1_655  S
C3          C187   1.538       .  S
C4            C8   1.597   1_455  S
C4            C6   1.542       .  S
C4           H10   1.110       .  S
C5           H11   1.085       .  S
C5            C6   1.407   1_655  D
C6          C390   1.540       .  S
C7           H12   1.088       .  S
C7            C8   1.360       .  D
C8          C131   1.530   1_655  S
C13          C14   1.509       .  S
C13          C19   1.519   1_545  S
C13          C17   1.581       .  S
C13         C336   1.553       .  S
C14          H21   1.088       .  S
C14          C15   1.358       .  D
C15          C16   1.600       .  S
C15         C295   1.538       .  S
C16          C20   1.605   1_545  S
C16          C18   1.541       .  S
C16          H22   1.110       .  S
C17          H23   1.085       .  S
C17          C18   1.402       .  D
C18         C116   1.531       .  S
C19          H24   1.086       .  S
C19          C20   1.363       .  D
C20         C172   1.544       .  S
C25          C26   1.518   1_565  S
C25          C31   1.515       .  S
C25          C29   1.586       .  S
C25         C103   1.557       .  S
C26          H33   1.086       .  S
C26          C27   1.358       .  D
C27          C28   1.592   1_545  S
C27         C308   1.536       .  S
C28          C32   1.599       .  S
C28          C30   1.531       .  S
C28          H34   1.110       .  S
C29          H35   1.085       .  S
C29          C30   1.404       .  D
C30         C323   1.520   1_565  S
C31          H36   1.088       .  S
C31          C32   1.360       .  D
C32         C159   1.537       .  S
C37          C38   1.513   1_556  S
C37          C43   1.512       .  S
C37          C41   1.590       .  S
C37          C77   1.551       .  S
C38          H45   1.088       .  S
C38          C39   1.356       .  D
C39          C40   1.603       .  S
C39         C226   1.536       .  S
C40          C44   1.595   1_554  S
C40          C42   1.538   1_554  S
C40          H46   1.110       .  S
C41          H47   1.085       .  S
C41          C42   1.407       .  D
C42         C241   1.536       .  S
C43          H48   1.089       .  S
C43          C44   1.353       .  D
C44         C349   1.523       .  S
C49          C50   1.513       .  S
C49          C55   1.505   1_556  S
C49          C53   1.591       .  S
C49          C90   1.551   1_556  S
C50          H57   1.087       .  S
C50          C51   1.355       .  D
C51          C52   1.602       .  S
C51         C362   1.533       .  S
C52          C56   1.604   1_556  S
C52          C54   1.544       .  S
C52          H58   1.110       .  S
C53          H59   1.085   1_556  S
C53          C54   1.409       .  D
C54         C254   1.545       .  S
C55          H60   1.088       .  S
C55          C56   1.352       .  D
C56         C213   1.533       .  S
C61          C62   1.507       .  S
C61          C67   1.511       .  S
C61          C65   1.591       .  S
C61         C377   1.551       .  S
C62          H69   1.088       .  S
C62          C63   1.357       .  D
C63          C64   1.608   1_455  S
C63         C200   1.538   1_455  S
C64          C68   1.607   1_655  S
C64          C66   1.538       .  S
C64          H70   1.110       .  S
C65          H71   1.085       .  S
C65          C66   1.408   1_455  D
C66         C280   1.542       .  S
C67          H72   1.087       .  S
C67          C68   1.351       .  D
C68         C144   1.541       .  S
In73         O75   2.138   1_556  S
In73         O76   2.145       .  S
In73         O84   2.315       .  S
In73         O78   2.317   1_556  S
In73         O80   2.299   1_556  S
In73         O81   2.313       .  S
In73         O82   2.279   1_556  S
In73         O85   2.270       .  S
C74         C235   1.543       .  S
C74          O80   1.271       .  A
C74          O82   1.254       .  A
O75          C83   1.263       .  A
O76          C83   1.264   1_556  A
C77          O84   1.271       .  A
C77          O78   1.253   1_556  A
C79         C125   1.546       .  S
C79          O81   1.254       .  A
C79          O85   1.272       .  A
C83          C96   1.398   1_655  S
In86         O88   2.142   1_554  S
In86         O89   2.139       .  S
In86         O97   2.320       .  S
In86         O91   2.291   1_554  S
In86         O93   2.230   1_554  S
In86         O94   2.253       .  S
In86         O95   2.265   1_554  S
In86         O98   2.222       .  S
C87         C399   1.518       .  S
C87          O93   1.270       .  A
C87          O95   1.261       .  A
O88          C96   1.263   1_556  A
O89          C96   1.261       .  A
C90          O97   1.259       .  A
C90          O91   1.267   1_554  A
C92         C181   1.517       .  S
C92          O94   1.257       .  A
C92          O98   1.272       .  A
In99        O101   2.166       .  S
In99        O102   2.160   1_545  S
In99        O110   2.325   1_545  S
In99        O104   2.309       .  S
In99        O106   2.275       .  S
In99        O107   2.257   1_545  S
In99        O108   2.281       .  S
In99        O111   2.276   1_545  S
C100        C317   1.548       .  S
C100        O106   1.269       .  A
C100        O108   1.260       .  A
O101        C109   1.262   1_545  A
O102        C109   1.260       .  A
C103        O110   1.257       .  A
C103        O104   1.269   1_565  A
C105        C125   1.539       .  S
C105        O107   1.259       .  A
C105        O111   1.273       .  A
C109        C118   1.409   1_556  S
In112       O114   2.284   1_545  S
In112       O115   2.254   1_545  S
In112       O123   2.325       .  S
In112       O117   2.364       .  S
In112       O119   2.258       .  S
In112       O120   2.162   1_545  S
In112       O121   2.299       .  S
In112       O124   2.156       .  S
C113        C289   1.532       .  S
C113        O119   1.270       .  A
C113        O121   1.258       .  A
O114        C122   1.257       .  A
O115        C122   1.265       .  A
C116        O123   1.251       .  A
C116        O117   1.270       .  A
C118        O120   1.264       .  A
C118        O124   1.264   1_565  A
C122        C235   1.524       .  S
C125        C133   1.544       .  S
C125        C513   1.507       .  S
C126        C161   1.556       .  S
C126        C269   1.551       .  S
C126        C351   1.542       .  S
C126        C521   1.503       .  S
In127       O129   2.179       .  S
In127       O130   2.143   1_455  S
In127       O138   2.283   1_455  S
In127       O132   2.356       .  S
In127       O134   2.258       .  S
In127       O135   2.271   1_455  S
In127       O136   2.300       .  S
In127       O139   2.296   1_455  S
C128        C399   1.553       .  S
C128        O134   1.273       .  A
C128        O136   1.256       .  A
O129        C137   1.261       .  A
O130        C137   1.257   1_655  A
C131        O138   1.271   1_455  A
C131        O132   1.257       .  A
C133        O135   1.260       .  A
C133        O139   1.272       .  A
C137        C150   1.403   1_565  S
In140       O142   2.135   1_455  S
In140       O143   2.164       .  S
In140       O151   2.274       .  S
In140       O145   2.379   1_455  S
In140       O147   2.223   1_455  S
In140       O148   2.297       .  S
In140       O149   2.253   1_455  S
In140       O152   2.273       .  S
C141        C317   1.520       .  S
C141        O147   1.270       .  A
C141        O149   1.259       .  A
O142        C150   1.262   1_655  A
O143        C150   1.263       .  A
C144        O151   1.271       .  A
C144        O145   1.258   1_455  A
C146        C371   1.548       .  S
C146        O148   1.261       .  A
C146        O152   1.272       .  A
C153        C197   1.539       .  S
C153        C251   1.549       .  S
C153        C333   1.545       .  S
C153        C497   1.496       .  S
C154        C210   1.525       .  S
C154        C292   1.537       .  S
C154        C383   1.526       .  S
C154        C505   1.499       .  S
In155       O157   2.196       .  S
In155       O158   2.179       .  S
In155       O166   2.302       .  S
In155       O160   2.365       .  S
In155       O162   2.251       .  S
In155       O163   2.271       .  S
In155       O164   2.312       .  S
In155       O167   2.307       .  S
C156        C400   1.556       .  S
C156        O162   1.272       .  A
C156        O164   1.256       .  A
O157        C165   1.260       .  A
O158        C165   1.257       .  A
C159        O166   1.272       .  A
C159        O160   1.258       .  A
C161        O163   1.262       .  A
C161        O167   1.271       .  A
C165        C174   1.421       .  S
In168       O170   2.301       .  S
In168       O171   2.264       .  S
In168       O179   2.388       .  S
In168       O173   2.298       .  S
In168       O175   2.276       .  S
In168       O176   2.175       .  S
In168       O177   2.303       .  S
In168       O180   2.180       .  S
C169        C182   1.539       .  S
C169        O175   1.273       .  A
C169        O177   1.256       .  A
O170        C178   1.272       .  A
O171        C178   1.254       .  A
C172        O179   1.261       .  A
C172        O173   1.268       .  A
C174        O176   1.263       .  A
C174        O180   1.261       .  A
C178        C236   1.548       .  S
C181        C189   1.520       .  S
C181        C338   1.540       .  S
C181        C481   1.502       .  S
C182        C215   1.561       .  S
C182        C392   1.563       .  S
C182        C489   1.495       .  S
In183       O185   2.185       .  S
In183       O186   2.146   1_655  S
In183       O194   2.375   1_655  S
In183       O188   2.293       .  S
In183       O190   2.279       .  S
In183       O191   2.257   1_655  S
In183       O192   2.311       .  S
In183       O195   2.233   1_655  S
C184        C235   1.550       .  S
C184        O190   1.273       .  A
C184        O192   1.259       .  A
O185        C193   1.264       .  A
O186        C193   1.259   1_455  A
C187        O194   1.257   1_655  A
C187        O188   1.269       .  A
C189        O191   1.255       .  A
C189        O195   1.269       .  A
C193        C206   1.413   1_565  S
In196       O198   2.148   1_655  S
In196       O199   2.186       .  S
In196       O207   2.373       .  S
In196       O201   2.289   1_655  S
In196       O203   2.259   1_655  S
In196       O204   2.285       .  S
In196       O205   2.307   1_655  S
In196       O208   2.273       .  S
C197        O203   1.261       .  A
C197        O205   1.265       .  A
O198        C206   1.261   1_455  A
O199        C206   1.263       .  A
C200        O207   1.257       .  A
C200        O201   1.270   1_655  A
C202        C289   1.549       .  S
C202        O204   1.258       .  A
C202        O208   1.275       .  A
In209       O211   2.161       .  S
In209       O212   2.186       .  S
In209       O220   2.289       .  S
In209       O214   2.379       .  S
In209       O216   2.227       .  S
In209       O217   2.281       .  S
In209       O218   2.298       .  S
In209       O221   2.329       .  S
C210        O216   1.273       .  A
C210        O218   1.252       .  A
O211        C219   1.258       .  A
O212        C219   1.262       .  A
C213        O220   1.268       .  A
C213        O214   1.254       .  A
C215        O217   1.264       .  A
C215        O221   1.266       .  A
C219        C228   1.415       .  S
In222       O224   2.277       .  S
In222       O225   2.266       .  S
In222       O233   2.289       .  S
In222       O227   2.363       .  S
In222       O229   2.263       .  S
In222       O230   2.177       .  S
In222       O231   2.267       .  S
In222       O234   2.164       .  S
C223        C290   1.538       .  S
C223        O229   1.274       .  A
C223        O231   1.262       .  A
O224        C232   1.264       .  A
O225        C232   1.260       .  A
C226        O233   1.271       .  A
C226        O227   1.258       .  A
C228        O230   1.259       .  A
C228        O234   1.263       .  A
C232        C236   1.532       .  S
C235        C473   1.494       .  S
C236        C264   1.519       .  S
C236        C465   1.503       .  S
In237       O239   2.166       .  S
In237       O240   2.169   1_556  S
In237       O248   2.338       .  S
In237       O242   2.350   1_556  S
In237       O244   2.253       .  S
In237       O245   2.247   1_556  S
In237       O246   2.281       .  S
In237       O249   2.285   1_556  S
C238        C317   1.532       .  S
C238        O244   1.275       .  A
C238        O246   1.256       .  A
O239        C247   1.262       .  A
O240        C247   1.265   1_554  A
C241        O248   1.256       .  A
C241        O242   1.270   1_556  A
C243        C289   1.529       .  S
C243        O245   1.264       .  A
C243        O249   1.263       .  A
C247        C260   1.415   1_655  S
In250       O252   2.161   1_556  S
In250       O253   2.168       .  S
In250       O261   2.354       .  S
In250       O255   2.379   1_556  S
In250       O257   2.299   1_556  S
In250       O258   2.290       .  S
In250       O259   2.321   1_556  S
In250       O262   2.329       .  S
C251        O257   1.271       .  A
C251        O259   1.251       .  A
O252        C260   1.266   1_554  A
O253        C260   1.268       .  A
C254        O261   1.254       .  A
C254        O255   1.272   1_556  A
C256        C371   1.553       .  S
C256        O258   1.253       .  A
C256        O262   1.270       .  A
In263       O265   2.154       .  S
In263       O266   2.180       .  S
In263       O274   2.347       .  S
In263       O268   2.283       .  S
In263       O270   2.235       .  S
In263       O271   2.286       .  S
In263       O272   2.273       .  S
In263       O275   2.280       .  S
C264        O270   1.269       .  A
C264        O272   1.257       .  A
O265        C273   1.260       .  A
O266        C273   1.262       .  A
C267        O274   1.261       .  A
C267        O268   1.263       .  A
C269        O271   1.256       .  A
C269        O275   1.272       .  A
C273        C282   1.412       .  S
In276       O278   2.294       .  S
In276       O279   2.301       .  S
In276       O287   2.335       .  S
In276       O281   2.375       .  S
In276       O283   2.285       .  S
In276       O284   2.172       .  S
In276       O285   2.266       .  S
In276       O288   2.148       .  S
C277        C290   1.527       .  S
C277        O283   1.260       .  A
C277        O285   1.261       .  A
O278        C286   1.277       .  A
O279        C286   1.258       .  A
C280        O287   1.253       .  A
C280        O281   1.274       .  A
C282        O284   1.266       .  A
C282        O288   1.263       .  A
C286        C318   1.558       .  S
C289        C457   1.483       .  S
C290        C297   1.536       .  S
C290        C449   1.486       .  S
In291       O293   2.163       .  S
In291       O294   2.171       .  S
In291       O302   2.385       .  S
In291       O296   2.266       .  S
In291       O298   2.252       .  S
In291       O299   2.295       .  S
In291       O300   2.294       .  S
In291       O303   2.220       .  S
C292        O298   1.264       .  A
C292        O300   1.266       .  A
O293        C301   1.260       .  A
O294        C301   1.260       .  A
C295        O302   1.261       .  A
C295        O296   1.265       .  A
C297        O299   1.259       .  A
C297        O303   1.274       .  A
C301        C310   1.410       .  S
In304       O306   2.275       .  S
In304       O307   2.299       .  S
In304       O315   2.282       .  S
In304       O309   2.374       .  S
In304       O311   2.274       .  S
In304       O312   2.162       .  S
In304       O313   2.261       .  S
In304       O316   2.161       .  S
C305        C372   1.535       .  S
C305        O311   1.274       .  A
C305        O313   1.253       .  A
O306        C314   1.274       .  A
O307        C314   1.259       .  A
C308        O315   1.267       .  A
C308        O309   1.260       .  A
C310        O312   1.262       .  A
C310        O316   1.261       .  A
C314        C318   1.542       .  S
C317        C441   1.494       .  S
C318        C346   1.544       .  S
C318        C433   1.490       .  S
In319       O321   2.272   1_545  S
In319       O322   2.252   1_545  S
In319       O330   2.317   1_545  S
In319       O324   2.325       .  S
In319       O326   2.270       .  S
In319       O327   2.168   1_545  S
In319       O328   2.298       .  S
In319       O331   2.157       .  S
C320        C371   1.530       .  S
C320        O326   1.261       .  A
C320        O328   1.261       .  A
O321        C329   1.271       .  A
O322        C329   1.256       .  A
C323        O330   1.253   1_545  A
C323        O324   1.271       .  A
C325        O327   1.263   1_545  A
C325        O331   1.261       .  A
C325        C342   1.410   1_556  S
C329        C399   1.524       .  S
In332       O334   2.158       .  S
In332       O335   2.171   1_545  S
In332       O343   2.311   1_545  S
In332       O337   2.319       .  S
In332       O339   2.269       .  S
In332       O340   2.253   1_545  S
In332       O341   2.286       .  S
In332       O344   2.274   1_545  S
C333        O339   1.274       .  A
C333        O341   1.257       .  A
O334        C342   1.260       .  A
O335        C342   1.261   1_565  A
C336        O343   1.265   1_545  A
C336        O337   1.259       .  A
C338        O340   1.260       .  A
C338        O344   1.271       .  A
In345       O347   2.170       .  S
In345       O348   2.144       .  S
In345       O356   2.280       .  S
In345       O350   2.383       .  S
In345       O352   2.300       .  S
In345       O353   2.313       .  S
In345       O354   2.260       .  S
In345       O357   2.270       .  S
C346        O352   1.269       .  A
C346        O354   1.260       .  A
O347        C355   1.261       .  A
O348        C355   1.259       .  A
C349        O356   1.254       .  A
C349        O350   1.269       .  A
C351        O353   1.255       .  A
C351        O357   1.276       .  A
C355        C364   1.403       .  S
In358       O360   2.258       .  S
In358       O361   2.287       .  S
In358       O369   2.277       .  S
In358       O363   2.360       .  S
In358       O365   2.208       .  S
In358       O366   2.139       .  S
In358       O367   2.262       .  S
In358       O370   2.165       .  S
C359        C372   1.527       .  S
C359        O365   1.272       .  A
C359        O367   1.256       .  A
O360        C368   1.275       .  A
O361        C368   1.263       .  A
C362        O369   1.274       .  A
C362        O363   1.258       .  A
C364        O366   1.260       .  A
C364        O370   1.262       .  A
C368        C400   1.538       .  S
C371        C425   1.498       .  S
C372        C374   1.506       .  S
C372        C417   1.492       .  S
In373       O375   2.239       .  S
In373       O376   2.243       .  S
In373       O384   2.328       .  S
In373       O378   2.273       .  S
In373       O380   2.233       .  S
In373       O381   2.178       .  S
In373       O382   2.270       .  S
In373       O385   2.132       .  S
C374        O380   1.266       .  A
C374        O382   1.260       .  A
O375        C383   1.269       .  A
O376        C383   1.259       .  A
C377        O384   1.259       .  A
C377        O378   1.267       .  A
C379        O381   1.265       .  A
C379        O385   1.262       .  A
C379        C396   1.409       .  S
In386       O388   2.134       .  S
In386       O389   2.180       .  S
In386       O397   2.334       .  S
In386       O391   2.383       .  S
In386       O393   2.300       .  S
In386       O394   2.325       .  S
In386       O395   2.291       .  S
In386       O398   2.325       .  S
C387        C400   1.539       .  S
C387        O393   1.270       .  A
C387        O395   1.252       .  A
O388        C396   1.264       .  A
O389        C396   1.268       .  A
C390        O397   1.251       .  A
C390        O391   1.274       .  A
C392        O394   1.255       .  A
C392        O398   1.274       .  A
C399        C401   1.496       .  S
C400        C409   1.494       .  S
C401        C402   1.415       .  A
C401        C406   1.404       .  A
C402        C403   1.382       .  A
C402        H411   1.082       .  S
C403        C404   1.394       .  A
C403        H412   1.084       .  S
C404        C410   1.359       .  A
C404        C405   1.408       .  A
C405        C407   1.393       .  A
C405        C406   1.358       .  A
C406        H413   1.085       .  S
C407        C408   1.381       .  A
C407        H414   1.084       .  S
C408        C409   1.414       .  A
C408        H415   1.082       .  S
C409        C410   1.408       .  A
C410        H416   1.085       .  S
C417        C418   1.413       .  A
C417        C422   1.388       .  A
C418        C419   1.379       .  A
C418        H427   1.083       .  S
C419        C420   1.393       .  A
C419        H428   1.084       .  S
C420        C426   1.366       .  A
C420        C421   1.414       .  A
C421        C423   1.378       .  A
C421        C422   1.362       .  A
C422        H429   1.085       .  S
C423        C424   1.366       .  A
C423        H430   1.085       .  S
C424        C425   1.427       .  A
C424        H431   1.077       .  S
C425        C426   1.399       .  A
C426        H432   1.085       .  S
C433        C434   1.418       .  A
C433        C438   1.399       .  A
C434        C435   1.363       .  A
C434        H443   1.076       .  S
C435        C436   1.381       .  A
C435        H444   1.084       .  S
C436        C442   1.355       .  A
C436        C437   1.408       .  A
C437        C439   1.385       .  A
C437        C438   1.356       .  A
C438        H445   1.082       .  S
C439        C440   1.367       .  A
C439        H446   1.085       .  S
C440        C441   1.421       .  A
C440        H447   1.083       .  S
C441        C442   1.389       .  A
C442        H448   1.075       .  S
C449        C450   1.417       .  A
C449        C454   1.402       .  A
C450        C451   1.366       .  A
C450        H459   1.079       .  S
C451        C452   1.383       .  A
C451        H460   1.085       .  S
C452        C458   1.348       .  A
C452        C453   1.405       .  A
C453        C455   1.387       .  A
C453        C454   1.349       .  A
C454        H461   1.084       .  S
C455        C456   1.368       .  A
C455        H462   1.085       .  S
C456        C457   1.416       .  A
C456        H463   1.078       .  S
C457        C458   1.397       .  A
C458        H464   1.086       .  S
C465        C466   1.418       .  A
C465        C470   1.393       .  A
C466        C467   1.376       .  A
C466        H475   1.076       .  S
C467        C468   1.387       .  A
C467        H476   1.084       .  S
C468        C474   1.370       .  A
C468        C469   1.412       .  A
C469        C471   1.381       .  A
C469        C470   1.367       .  A
C470        H477   1.085       .  S
C471        C472   1.369       .  A
C471        H478   1.085       .  S
C472        C473   1.423       .  A
C472        H479   1.080       .  S
C473        C474   1.397       .  A
C474        H480   1.084       .  S
C481        C482   1.420       .  A
C481        C486   1.393       .  A
C482        C483   1.372       .  A
C482        H491   1.083       .  S
C483        C484   1.385       .  A
C483        H492   1.084       .  S
C484        C490   1.367       .  A
C484        C485   1.410       .  A
C485        C487   1.384       .  A
C485        C486   1.364       .  A
C486        H493   1.076       .  S
C487        C488   1.367       .  A
C487        H494   1.084       .  S
C488        C489   1.419       .  A
C488        H495   1.078       .  S
C489        C490   1.397       .  A
C490        H496   1.084       .  S
C497        C498   1.416       .  A
C497        C502   1.402       .  A
C498        C499   1.371       .  A
C498        H507   1.077       .  S
C499        C500   1.386       .  A
C499        H508   1.085       .  S
C500        C506   1.358       .  A
C500        C501   1.405       .  A
C501        C503   1.388       .  A
C501        C502   1.361       .  A
C502        H509   1.085       .  S
C503        C504   1.374       .  A
C503        H510   1.085       .  S
C504        C505   1.415       .  A
C504        H511   1.075       .  S
C505        C506   1.401       .  A
C506        H512   1.085       .  S
C513        C514   1.415       .  A
C513        C518   1.406       .  A
C514        C515   1.372       .  A
C514        H523   1.071       .  S
C515        C516   1.385       .  A
C515        H524   1.085       .  S
C516        C522   1.362       .  A
C516        C517   1.405       .  A
C517        C519   1.391       .  A
C517        C518   1.367       .  A
C518        H525   1.085       .  S
C519        C520   1.380       .  A
C519        H526   1.084       .  S
C520        C521   1.413       .  A
C520        H527   1.076       .  S
C521        C522   1.401       .  A
C522        H528   1.085       .  S
