geometry optimzed in LAMMPS
_audit_creation_date              2020-11-30 
_audit_creation_method            'lammps2cif' 
_symmetry_space_group_name_H-M    'P1' 
_symmetry_Int_Tables_number       1 
_symmetry_cell_setting            triclinic 
loop_ 
_symmetry_equiv_pos_as_xyz 
  x,y,z 
_cell_length_a                    31.964754319594654 
_cell_length_b                    32.04374442548291 
_cell_length_c                    31.97428799616879 
_cell_angle_alpha                 90.48071328320295 
_cell_angle_beta                  90.18468198277144 
_cell_angle_gamma                 89.47563328160255 
loop_ 
_atom_site_label 
_atom_site_type_symbol 
_atom_site_fract_x 
_atom_site_fract_y 
_atom_site_fract_z 
_atom_site_charge 
C1          C  0.63415782  0.13562982  0.79997584     0.03190
C2          C  0.64105070  0.17823776  0.80786025    -0.12960
C3          C  0.65028670  0.19342903  0.84831320     0.00690
C4          C  0.65263194  0.16395850  0.88109303    -0.11480
C5          C  0.64095129  0.12203950  0.87420494     0.03190
C6          C  0.63133321  0.10831266  0.83368333    -0.10900
H7          H  0.64033018  0.19949711  0.78174169     0.08780
H8          H  0.66356877  0.17304744  0.91180079     0.06310
H9          H  0.62390133  0.07579793  0.82809313     0.06160
C10         C  0.89607330  0.15719837  0.56791875     0.03190
C11         C  0.91156164  0.19761505  0.56495352    -0.12960
C12         C  0.95382030  0.20466445  0.55625292     0.00690
C13         C  0.98106563  0.17058186  0.55069852    -0.11480
C14         C  0.96686203  0.12975898  0.55614201     0.03190
C15         C  0.92406834  0.12292592  0.56437599    -0.10900
H16         H  0.89018657  0.22386271  0.56848076     0.08780
H17         H  0.01357638  0.17580341  0.54292231     0.06310
H18         H  0.91253983  0.09137897  0.56717609     0.06160
C19         C  0.95054266  0.46781803  0.79769150     0.03190
C20         C  0.90817881  0.46573523  0.80870218    -0.12960
C21         C  0.89548656  0.46879862  0.85048922     0.00690
C22         C  0.92560708  0.47248392  0.88209891    -0.11480
C23         C  0.96811165  0.47123643  0.87213525     0.03190
C24         C  0.98068762  0.46979666  0.82997973    -0.10900
H25         H  0.88483080  0.45998034  0.78478405     0.08780
H26         H  0.91603228  0.47427280  0.91457061     0.06310
H27         H  0.01372488  0.46953025  0.82248136     0.06160
C28         C  0.72032478  0.43260651  0.86532240     0.03190
C29         C  0.71201754  0.38988317  0.85995088    -0.12960
C30         C  0.67106097  0.37468036  0.86002560     0.00690
C31         C  0.63748725  0.40323328  0.86489847    -0.11480
C32         C  0.64542273  0.44624346  0.87008280     0.03190
C33         C  0.68676441  0.46036710  0.87159869    -0.10900
H34         H  0.73771540  0.36799315  0.85579038     0.08780
H35         H  0.60556483  0.39214510  0.86446120     0.06310
H36         H  0.69266152  0.49313697  0.87746177     0.06160
C37         C  0.98539894  0.37922785  0.56831456     0.03190
C38         C  0.98795783  0.40983278  0.53753433    -0.12960
C39         C  0.98620281  0.45203677  0.54874355     0.00690
C40         C  0.98535176  0.46386035  0.59114051    -0.11480
C41         C  0.98450831  0.43329964  0.62257657     0.03190
C42         C  0.98307114  0.39119686  0.61054083    -0.10900
H43         H  0.98984216  0.40087855  0.50482495     0.08780
H44         H  0.98475986  0.49668629  0.59952055     0.06310
H45         H  0.97865594  0.36749409  0.63405081     0.06160
C46         C  0.71638019  0.13525127  0.57957311     0.03190
C47         C  0.70272382  0.12129203  0.61874264    -0.12960
C48         C  0.66094800  0.11055068  0.62558786     0.00690
C49         C  0.63358325  0.10742088  0.59148770    -0.11480
C50         C  0.64654835  0.11937208  0.55156774     0.03190
C51         C  0.68753726  0.13444768  0.54585856    -0.10900
H52         H  0.72432997  0.12007400  0.64478796     0.08780
H53         H  0.60139521  0.09835032  0.59653836     0.06310
H54         H  0.69671045  0.14535778  0.51529459     0.06160
C55         C  0.16287265  0.46317026  0.80277166     0.03190
C56         C  0.13110894  0.46413914  0.83317981    -0.12960
C57         C  0.14156215  0.46686550  0.87595260     0.00690
C58         C  0.18347656  0.46782611  0.88851293    -0.11480
C59         C  0.21505363  0.46674543  0.85858199     0.03190
C60         C  0.20466937  0.46667877  0.81602912    -0.10900
H61         H  0.09862972  0.46146661  0.82382044     0.08780
H62         H  0.19151041  0.46742305  0.92147205     0.06310
H63         H  0.22963779  0.46675787  0.79319566     0.06160
C64         C  0.22086508  0.14197880  0.55435617     0.03190
C65         C  0.21020166  0.18422134  0.55943017    -0.12960
C66         C  0.16852684  0.19794395  0.55960288     0.00690
C67         C  0.13647913  0.16823902  0.55771674    -0.11480
C68         C  0.14620895  0.12551297  0.55408848     0.03190
C69         C  0.18849656  0.11240592  0.55213248    -0.10900
H70         H  0.23490849  0.20695289  0.56261328     0.08780
H71         H  0.10406112  0.17828292  0.55918888     0.06310
H72         H  0.19607659  0.07951699  0.54892912     0.06160
C73         C  0.48575272  0.15483130  0.80250345     0.03190
C74         C  0.47170999  0.19368281  0.81764810    -0.12960
C75         C  0.46542486  0.20185941  0.86032497     0.00690
C76         C  0.46801298  0.16853241  0.88822049    -0.11480
C77         C  0.48116800  0.12889669  0.87439069     0.03190
C78         C  0.49131491  0.12230323  0.83186121    -0.10900
H79         H  0.46445493  0.21800751  0.79577579     0.08780
H80         H  0.45944832  0.17313391  0.92067818     0.06310
H81         H  0.50185625  0.09165410  0.82186509     0.06160
C82         C  0.44357567  0.37830353  0.89188305     0.03190
C83         C  0.47569062  0.40706355  0.88596929    -0.12960
C84         C  0.46557618  0.44936826  0.88019014     0.00690
C85         C  0.42328785  0.46170197  0.87708379    -0.11480
C86         C  0.39105482  0.43348008  0.88689049     0.03190
C87         C  0.40272718  0.39268610  0.89756947    -0.10900
H88         H  0.50792569  0.39647893  0.88405810     0.08780
H89         H  0.41619667  0.49293792  0.86668468     0.06310
H90         H  0.37927668  0.37017879  0.90590736     0.06160
C91         C  0.45608198  0.13661627  0.62548715     0.03190
C92         C  0.48484973  0.13770548  0.59268299    -0.12960
C93         C  0.47166435  0.13087501  0.55147519     0.00690
C94         C  0.42929256  0.12347346  0.54277498    -0.11480
C95         C  0.39958077  0.12352750  0.57517886     0.03190
C96         C  0.41344590  0.12985876  0.61664559    -0.10900
H97         H  0.51774211  0.14212129  0.59935223     0.08780
H98         H  0.41938641  0.11826892  0.51071470     0.06310
H99         H  0.39106262  0.13037824  0.64202711     0.06160
C100        C  0.13826873  0.37638510  0.57421890     0.03190
C101        C  0.13176165  0.39031643  0.61532639    -0.12960
C102        C  0.13158024  0.43300231  0.62579029     0.00690
C103        C  0.13263130  0.46226793  0.59340741    -0.11480
C104        C  0.13503134  0.44881171  0.55143626     0.03190
C105        C  0.13855324  0.40587824  0.54189200    -0.10900
H106        H  0.13063789  0.36746922  0.64012341     0.08780
H107        H  0.13355135  0.49531408  0.60070932     0.06310
H108        H  0.14280263  0.39571718  0.50977749     0.06160
C109        C  0.49099949  0.92499333  0.80379566     0.03190
C110        C  0.48713742  0.88353531  0.81640488    -0.12960
C111        C  0.47913371  0.87343643  0.85834078     0.00690
C112        C  0.47659234  0.90598646  0.88817424    -0.11480
C113        C  0.48352988  0.94753867  0.87637209     0.03190
C114        C  0.49040601  0.95690008  0.83419483    -0.10900
H115        H  0.48724659  0.85914451  0.79275022     0.08780
H116        H  0.46839271  0.89934413  0.92022981     0.06310
H117        H  0.49309758  0.98917603  0.82471461     0.06160
C118        C  0.21478053  0.92376771  0.55024755     0.03190
C119        C  0.19989235  0.88293513  0.54603236    -0.12960
C120        C  0.15694260  0.87455911  0.54456457     0.00690
C121        C  0.12861827  0.90816124  0.54301661    -0.11480
C122        C  0.14287735  0.94934520  0.54595311     0.03190
C123        C  0.18596142  0.95722354  0.54987218    -0.10900
H124        H  0.22211689  0.85722289  0.54597487     0.08780
H125        H  0.09540710  0.90245059  0.54053193     0.06310
H126        H  0.19681666  0.98899642  0.55349449     0.06160
C127        C  0.16404593  0.61530191  0.79852492     0.03190
C128        C  0.20660155  0.61403158  0.80965709    -0.12960
C129        C  0.21922116  0.60933453  0.85154707     0.00690
C130        C  0.18813865  0.60765806  0.88269335    -0.11480
C131        C  0.14574039  0.61235538  0.87223956     0.03190
C132        C  0.13378616  0.61549731  0.83025491    -0.10900
H133        H  0.22987182  0.61860411  0.78564395     0.08780
H134        H  0.19688145  0.60449091  0.91528707     0.06310
H135        H  0.10091833  0.61843964  0.82241723     0.06160
C136        C  0.39370887  0.64249686  0.88678661     0.03190
C137        C  0.42630799  0.61282407  0.88548459    -0.12960
C138        C  0.46818669  0.62530370  0.88527511     0.00690
C139        C  0.47779689  0.66801657  0.88518122    -0.11480
C140        C  0.44540066  0.69804081  0.88520970     0.03190
C141        C  0.40369171  0.68495408  0.88732382    -0.10900
H142        H  0.41931249  0.57994555  0.88346448     0.08780
H143        H  0.51011861  0.67775750  0.88329453     0.06310
H144        H  0.37875785  0.70806280  0.88657585     0.06160
C145        C  0.12802604  0.64678989  0.62405575     0.03190
C146        C  0.13041480  0.68842760  0.61129133    -0.12960
C147        C  0.12759988  0.69917189  0.56896856     0.00690
C148        C  0.12469862  0.66727882  0.53871765    -0.11480
C149        C  0.12674821  0.62535884  0.55073953     0.03190
C150        C  0.12666513  0.61517268  0.59323547    -0.10900
H151        H  0.13605422  0.71270840  0.63430404     0.08780
H152        H  0.12248384  0.67493304  0.50583998     0.06310
H153        H  0.12641714  0.58261237  0.60210428     0.06160
C154        C  0.44902909  0.94714741  0.62834528     0.03190
C155        C  0.40722562  0.94139087  0.61658462    -0.12960
C156        C  0.39414853  0.94214816  0.57454662     0.00690
C157        C  0.42469133  0.94538644  0.54316159    -0.11480
C158        C  0.46709045  0.95024128  0.55382201     0.03190
C159        C  0.47896998  0.95196163  0.59632330    -0.10900
H160        H  0.38450433  0.93508530  0.64047205     0.08780
H161        H  0.41579042  0.94332333  0.51053177     0.06310
H162        H  0.51162342  0.95626421  0.60428199     0.06160
C163        C  0.89763376  0.92378747  0.54025390     0.03190
C164        C  0.91406889  0.88358543  0.53218584    -0.12960
C165        C  0.95660391  0.87381879  0.53963463     0.00690
C166        C  0.98456578  0.90661390  0.54668238    -0.11480
C167        C  0.97003869  0.94799639  0.54722021     0.03190
C168        C  0.92684472  0.95630294  0.54640346    -0.10900
H169        H  0.89365496  0.85876695  0.52226504     0.08780
H170        H  0.01728549  0.90025220  0.55274938     0.06310
H171        H  0.91679905  0.98817898  0.55161424     0.06160
C172        C  0.64999378  0.93297300  0.80069834     0.03190
C173        C  0.65063918  0.88995600  0.80909761    -0.12960
C174        C  0.65038053  0.87505085  0.85042589     0.00690
C175        C  0.64771002  0.90427244  0.88356294    -0.11480
C176        C  0.64667339  0.94741161  0.87521058     0.03190
C177        C  0.64748051  0.96149219  0.83386422    -0.10900
H178        H  0.65237229  0.86799884  0.78319640     0.08780
H179        H  0.64763673  0.89363309  0.91564735     0.06310
H180        H  0.64733456  0.99467741  0.82758558     0.06160
C181        C  0.95330665  0.61067502  0.79660802     0.03190
C182        C  0.91162169  0.60334542  0.80833780    -0.12960
C183        C  0.89764924  0.60994022  0.84936665     0.00690
C184        C  0.92740293  0.61769455  0.88083547    -0.11480
C185        C  0.96998234  0.62023370  0.87066354     0.03190
C186        C  0.98246509  0.61927093  0.82857755    -0.10900
H187        H  0.88864473  0.59512250  0.78495755     0.08780
H188        H  0.91772765  0.62247038  0.91294295     0.06310
H189        H  0.01466969  0.62601588  0.82124098     0.06160
C190        C  0.98938899  0.64052208  0.62185629     0.03190
C191        C  0.99002385  0.68340397  0.61306118    -0.12960
C192        C  0.98922136  0.69779432  0.57160533     0.00690
C193        C  0.99002197  0.66841389  0.53866504    -0.11480
C194        C  0.98977922  0.62542356  0.54731671     0.03190
C195        C  0.98973180  0.61165316  0.58884482    -0.10900
H196        H  0.98837826  0.70571281  0.63866424     0.08780
H197        H  0.98844874  0.67888710  0.50654756     0.06310
H198        H  0.98765597  0.57859989  0.59542412     0.06160
C199        C  0.72040442  0.63904114  0.87547591     0.03190
C200        C  0.70993277  0.68139235  0.87897581    -0.12960
C201        C  0.66813289  0.69536884  0.87679137     0.00690
C202        C  0.63622831  0.66520809  0.87561286    -0.11480
C203        C  0.64640575  0.62223841  0.87654578     0.03190
C204        C  0.68854101  0.60933343  0.87580778    -0.10900
H205        H  0.73507215  0.70386126  0.88035046     0.08780
H206        H  0.60380076  0.67479260  0.87274655     0.06310
H207        H  0.69640389  0.57641196  0.87401624     0.06160
C208        C  0.72058405  0.96146621  0.56652060     0.03190
C209        C  0.71187343  0.96996235  0.60849427    -0.12960
C210        C  0.67076292  0.96755973  0.62421826     0.00690
C211        C  0.63776258  0.96260565  0.59512522    -0.11480
C212        C  0.64605937  0.96008253  0.55198366     0.03190
C213        C  0.68755851  0.95739904  0.53801638    -0.10900
H214        H  0.73807598  0.97539032  0.62928774     0.08780
H215        H  0.60590782  0.95881969  0.60548348     0.06310
H216        H  0.69404270  0.95154860  0.50525529     0.06160
C217        C  0.21732477  0.62658158  0.07427049     0.03190
C218        C  0.20438762  0.62237721  0.11555556    -0.12960
C219        C  0.16235424  0.61611576  0.12556501     0.00690
C220        C  0.13300291  0.61172887  0.09297895    -0.11480
C221        C  0.14533028  0.61678129  0.05113028     0.03190
C222        C  0.18769090  0.62393770  0.04179483    -0.10900
H223        H  0.22742212  0.62565396  0.14028808     0.08780
H224        H  0.10045204  0.60606063  0.10013866     0.06310
H225        H  0.19738815  0.62801680  0.00964378     0.06160
C226        C  0.22071054  0.92886209  0.38202950     0.03190
C227        C  0.18956352  0.95920213  0.38757388    -0.12960
C228        C  0.14767506  0.94714507  0.38963890     0.00690
C229        C  0.13735318  0.90459849  0.38933907    -0.11480
C230        C  0.16888819  0.87401119  0.38391459     0.03190
C231        C  0.20989242  0.88707373  0.37756619    -0.10900
H232        H  0.19772826  0.99196166  0.38880787     0.08780
H233        H  0.10489502  0.89557034  0.39215212     0.06310
H234        H  0.23386732  0.86480196  0.36840668     0.06160
C235        C  0.47583196  0.92271141  0.11999309     0.03190
C236        C  0.47112131  0.88256631  0.10269227    -0.12960
C237        C  0.47255775  0.87594290  0.05928065     0.00690
C238        C  0.47650285  0.90990427  0.03261220    -0.11480
C239        C  0.48002710  0.95033397  0.04898811     0.03190
C240        C  0.47993425  0.95682851  0.09260618    -0.10900
H241        H  0.46563624  0.85623389  0.12291930     0.08780
H242        H  0.47672334  0.90487668  0.99905499     0.06310
H243        H  0.48236542  0.98825649  0.10508579     0.06160
C244        C  0.39474865  0.65244030  0.04979880     0.03190
C245        C  0.40514779  0.69310705  0.03783607    -0.12960
C246        C  0.44578147  0.70332379  0.02533398     0.00690
C247        C  0.47629627  0.67135710  0.02327169    -0.11480
C248        C  0.46722923  0.63105521  0.03733723     0.03190
C249        C  0.42689259  0.62217725  0.05193870    -0.10900
H250        H  0.38155251  0.71738757  0.03956102     0.08780
H251        H  0.50777138  0.67833703  0.01312760     0.06310
H252        H  0.42056333  0.59150876  0.06425655     0.06160
C253        C  0.45038110  0.94083535  0.29931670     0.03190
C254        C  0.40911499  0.93471582  0.31204831    -0.12960
C255        C  0.39689783  0.94157411  0.35364815     0.00690
C256        C  0.42753694  0.95140433  0.38356065    -0.11480
C257        C  0.46986209  0.95177547  0.37253555     0.03190
C258        C  0.48138132  0.94731151  0.33014556    -0.10900
H259        H  0.38603090  0.92575901  0.28885436     0.08780
H260        H  0.41877285  0.95810192  0.41561543     0.06310
H261        H  0.51398749  0.94928948  0.32127087     0.06160
C262        C  0.14030563  0.64465557  0.30197441     0.03190
C263        C  0.13708582  0.61426840  0.33311124    -0.12960
C264        C  0.13595748  0.62582867  0.37536784     0.00690
C265        C  0.13679206  0.66821499  0.38665212    -0.11480
C266        C  0.13870233  0.69890834  0.35553342     0.03190
C267        C  0.14122131  0.68677741  0.31349484    -0.10900
H268        H  0.13633810  0.58161682  0.32478794     0.08780
H269        H  0.13627210  0.67726022  0.41938696     0.06310
H270        H  0.14513986  0.71023622  0.28960896     0.06160
C271        C  0.65641495  0.93398455  0.12841636     0.03190
C272        C  0.66508075  0.89210007  0.11872890    -0.12960
C273        C  0.65887442  0.87592989  0.07821477     0.00690
C274        C  0.64988736  0.90485285  0.04582756    -0.11480
C275        C  0.64556990  0.94798043  0.05470247     0.03190
C276        C  0.64710594  0.96192538  0.09623999    -0.10900
H277        H  0.67723426  0.87251737  0.14327309     0.08780
H278        H  0.64657684  0.89423768  0.01377659     0.06310
H279        H  0.64206419  0.99470473  0.10344064     0.06160
C280        C  0.89495407  0.93371622  0.39604676     0.03190
C281        C  0.90463664  0.89130794  0.39871251    -0.12960
C282        C  0.94553687  0.87679366  0.39198487     0.00690
C283        C  0.97816279  0.90609840  0.38968728    -0.11480
C284        C  0.96915649  0.94912274  0.39173852     0.03190
C285        C  0.92737702  0.96272557  0.39325850    -0.10900
H286        H  0.87940459  0.86933845  0.40253434     0.08780
H287        H  0.01019596  0.89571224  0.38525034     0.06310
H288        H  0.92037487  0.99555236  0.39022714     0.06160
C289        C  0.90077928  0.61784855  0.08086187     0.03190
C290        C  0.92794874  0.61886157  0.04605514    -0.12960
C291        C  0.97149238  0.62309367  0.05205444     0.00690
C292        C  0.98774865  0.62734444  0.09258115    -0.11480
C293        C  0.96122606  0.62523914  0.12703184     0.03190
C294        C  0.91854382  0.61779004  0.12102830    -0.10900
H295        H  0.91536192  0.61763623  0.01458058     0.08780
H296        H  0.02088263  0.63251444  0.09724464     0.06310
H297        H  0.89882335  0.61416853  0.14819742     0.06160
C298        C  0.72324562  0.63874931  0.05022285     0.03190
C299        C  0.71505042  0.68161903  0.04538899    -0.12960
C300        C  0.67417877  0.69718332  0.04297134     0.00690
C301        C  0.64065853  0.66898639  0.04253245    -0.11480
C302        C  0.64836507  0.62574272  0.04532484     0.03190
C303        C  0.68962671  0.61082274  0.05008680    -0.10900
H304        H  0.74070912  0.70351917  0.04685549     0.08780
H305        H  0.60878008  0.68068428  0.04102026     0.06310
H306        H  0.69525840  0.57782206  0.05486821     0.06160
C307        C  0.98427046  0.65475011  0.30250074     0.03190
C308        C  0.98539888  0.69505272  0.31952628    -0.12960
C309        C  0.97875364  0.70223777  0.36212178     0.00690
C310        C  0.97488820  0.66860463  0.38923188    -0.11480
C311        C  0.97598339  0.62782548  0.37319823     0.03190
C312        C  0.97897205  0.62093035  0.32990246    -0.10900
H313        H  0.98912303  0.72170356  0.29935169     0.08780
H314        H  0.97029696  0.67411962  0.42240604     0.06310
H315        H  0.97637812  0.58939025  0.31790162     0.06160
C316        C  0.66612510  0.97259971  0.30455840     0.03190
C317        C  0.70808295  0.97169574  0.31735375    -0.12960
C318        C  0.71952950  0.96246792  0.35872545     0.00690
C319        C  0.68733095  0.95589867  0.38790181    -0.11480
C320        C  0.64534592  0.96315326  0.37698964     0.03190
C321        C  0.63479884  0.97186383  0.33528726    -0.10900
H322        H  0.73205653  0.97590556  0.29412412     0.08780
H323        H  0.69453977  0.94531115  0.41914486     0.06310
H324        H  0.60223042  0.97552514  0.32646467     0.06160
C325        C  0.88972659  0.46544295  0.06958873     0.03190
C326        C  0.92157737  0.46850119  0.03964831    -0.12960
C327        C  0.96362457  0.46337400  0.05149281     0.00690
C328        C  0.97384779  0.45456101  0.09329493    -0.11480
C329        C  0.94206520  0.45122287  0.12333242     0.03190
C330        C  0.90049002  0.45788375  0.11123361    -0.10900
H331        H  0.91359291  0.47338936  0.00706290     0.08780
H332        H  0.00622618  0.44933120  0.10209521     0.06310
H333        H  0.87597230  0.45497550  0.13425876     0.06160
C334        C  0.89604490  0.14287417  0.38154510     0.03190
C335        C  0.90709731  0.18316498  0.39438468    -0.12960
C336        C  0.94845284  0.19648680  0.39223283     0.00690
C337        C  0.98048690  0.16663489  0.38765072    -0.11480
C338        C  0.97023569  0.12459420  0.38081633     0.03190
C339        C  0.92826411  0.11342839  0.37436590    -0.10900
H340        H  0.88288987  0.20613551  0.40112747     0.08780
H341        H  0.01293304  0.17609256  0.38744238     0.06310
H342        H  0.92128328  0.08215596  0.36373665     0.06160
C343        C  0.63007330  0.14429027  0.12566114     0.03190
C344        C  0.63145677  0.11418815  0.09374832    -0.12960
C345        C  0.63493901  0.12626988  0.05200576     0.00690
C346        C  0.63707819  0.16903496  0.04211301    -0.11480
C347        C  0.63521924  0.19939648  0.07429789     0.03190
C348        C  0.62978353  0.18657414  0.11563593    -0.10900
H349        H  0.63175939  0.08132121  0.10160674     0.08780
H350        H  0.64146148  0.17844745  0.00998365     0.06310
H351        H  0.62887630  0.20970767  0.14056783     0.06160
C352        C  0.66197872  0.37679620  0.05049870     0.03190
C353        C  0.70422767  0.38844205  0.04788168    -0.12960
C354        C  0.71581917  0.42987942  0.04101862     0.00690
C355        C  0.68451596  0.46038824  0.03663136    -0.11480
C356        C  0.64240856  0.44994990  0.04094031     0.03190
C357        C  0.63110101  0.40838806  0.04860649    -0.10900
H358        H  0.72847320  0.36519762  0.05235176     0.08780
H359        H  0.69298601  0.49265924  0.03165105     0.06310
H360        H  0.59853643  0.40104250  0.05373955     0.06160
C361        C  0.66482449  0.11515970  0.29973305     0.03190
C362        C  0.70675437  0.12108546  0.31087040    -0.12960
C363        C  0.71902166  0.12279839  0.35272722     0.00690
C364        C  0.68895335  0.12012406  0.38434097    -0.11480
C365        C  0.64681202  0.11435118  0.37362827     0.03190
C366        C  0.63525982  0.10943957  0.33158845    -0.10900
H367        H  0.73019386  0.12587658  0.28702586     0.08780
H368        H  0.69811940  0.12351634  0.41685181     0.06310
H369        H  0.60283277  0.10359595  0.32376579     0.06160
C370        C  0.96889055  0.37125255  0.35616432     0.03190
C371        C  0.97062572  0.38063910  0.31358183    -0.12960
C372        C  0.96756756  0.42172059  0.29982845     0.00690
C373        C  0.96774093  0.45444309  0.32950419    -0.11480
C374        C  0.97045081  0.44554843  0.37244410     0.03190
C375        C  0.97023831  0.40384842  0.38576521    -0.10900
H376        H  0.97186759  0.35546748  0.29073375     0.08780
H377        H  0.96573096  0.48657241  0.31931022     0.06310
H378        H  0.97004564  0.39693057  0.41888723     0.06160
C379        C  0.21916897  0.46114932  0.06376957     0.03190
C380        C  0.21190147  0.45302688  0.10608464    -0.12960
C381        C  0.17134294  0.44880565  0.12137048     0.00690
C382        C  0.13712501  0.45229081  0.09376634    -0.11480
C383        C  0.14404752  0.46032643  0.05112988     0.03190
C384        C  0.18497533  0.46593169  0.03659125    -0.10900
H385        H  0.23808851  0.44939472  0.12742402     0.08780
H386        H  0.10553790  0.44857741  0.10528654     0.06310
H387        H  0.19018370  0.47299032  0.00394434     0.06160
C388        C  0.47536518  0.15359394  0.12220424     0.03190
C389        C  0.48252398  0.12207155  0.09194461    -0.12960
C390        C  0.48055719  0.13143556  0.04909637     0.00690
C391        C  0.47610875  0.17305373  0.03647225    -0.11480
C392        C  0.47259284  0.20519961  0.06639751     0.03190
C393        C  0.46945195  0.19477777  0.10859521    -0.10900
H394        H  0.48856732  0.09022905  0.10138989     0.08780
H395        H  0.47534081  0.18020626  0.00350513     0.06310
H396        H  0.46212497  0.21931039  0.13096417     0.06160
C397        C  0.21393701  0.15637314  0.36663658     0.03190
C398        C  0.19436093  0.19441495  0.35692328    -0.12960
C399        C  0.15169605  0.20119330  0.36436681     0.00690
C400        C  0.12620895  0.16740549  0.37362053    -0.11480
C401        C  0.14369651  0.12735241  0.37708589     0.03190
C402        C  0.18761672  0.12210892  0.37580517    -0.10900
H403        H  0.21209593  0.21976986  0.34420632     0.08780
H404        H  0.09292186  0.17221552  0.37812264     0.06310
H405        H  0.20075213  0.09148823  0.38173466     0.06160
C406        C  0.44929706  0.13642378  0.29994772     0.03190
C407        C  0.47987200  0.13190091  0.33122349    -0.12960
C408        C  0.46828333  0.13088725  0.37353998     0.00690
C409        C  0.42568064  0.13472915  0.38447455    -0.11480
C410        C  0.39498449  0.13878591  0.35302025     0.03190
C411        C  0.40715174  0.13964508  0.31105038    -0.10900
H412        H  0.51257485  0.12938144  0.32266070     0.08780
H413        H  0.41649312  0.13427817  0.41706297     0.06310
H414        H  0.38358619  0.14312896  0.28682334     0.06160
C415        C  0.12768028  0.37615035  0.35239159     0.03190
C416        C  0.12631127  0.40822624  0.38232147    -0.12960
C417        C  0.14221534  0.44761715  0.37297091     0.00690
C418        C  0.15805625  0.45525133  0.33275635    -0.11480
C419        C  0.15322523  0.42534775  0.30031846     0.03190
C420        C  0.13844047  0.38565972  0.31112218    -0.10900
H421        H  0.11536810  0.40181665  0.41366559     0.08780
H422        H  0.17302754  0.48472105  0.32695089     0.06310
H423        H  0.13637174  0.36133478  0.28755365     0.06160
C424        C  0.44574340  0.38099666  0.03417979     0.03190
C425        C  0.40417638  0.39501816  0.03749487    -0.12960
C426        C  0.39392797  0.43752782  0.03491901     0.00690
C427        C  0.42584390  0.46676990  0.03124782    -0.11480
C428        C  0.46764450  0.45383230  0.03121938     0.03190
C429        C  0.47771052  0.41100349  0.03174918    -0.10900
H430        H  0.37949118  0.37290348  0.04332607     0.08780
H431        H  0.41835326  0.49971024  0.02980134     0.06310
H432        H  0.51023871  0.40126207  0.03109509     0.06160
O433        O  0.51672176  0.58559781  0.00431248    -0.71710
O434        O  0.59890174  0.49885691  0.00575003    -0.71930
O435        O  0.51533933  0.50126679  0.00119973    -0.71790
O436        O  0.60070952  0.58273591  0.00831376    -0.71800
O437        O  0.59703255  0.58187257  0.07618547    -0.71760
O438        O  0.51261599  0.49887318  0.06906496    -0.71780
O439        O  0.59582562  0.49771067  0.07368133    -0.71720
O440        O  0.51224067  0.58275831  0.07202288    -0.71910
V441        V  0.55779783  0.54214604  0.00622764     1.35240
V442        V  0.55451974  0.54051391  0.07144160     1.35170
C443        C  0.50014021  0.59853447  0.03790913     0.77520
C444        C  0.61083662  0.48330005  0.04001644     0.77580
C445        C  0.50020608  0.48561698  0.03385444     0.77450
C446        C  0.61365136  0.59588564  0.04331607     0.77410
O447        O  0.09823387  0.57885225  0.50078704    -0.71710
O448        O  0.10563051  0.49152958  0.42046061    -0.71930
O449        O  0.10180885  0.49522168  0.50418799    -0.71790
O450        O  0.10222243  0.57542864  0.41724928    -0.71800
O451        O  0.16944967  0.58199665  0.42493777    -0.71760
O452        O  0.16973608  0.49317121  0.50336587    -0.71780
O453        O  0.17323506  0.49809157  0.41891724    -0.71720
O454        O  0.16565506  0.57722675  0.50863727    -0.71910
V455        V  0.10325893  0.53526232  0.46070545     1.35240
V456        V  0.16835373  0.53750561  0.46389812     1.35170
C457        C  0.13040682  0.59236436  0.51889253     0.77520
C458        C  0.14049544  0.48066215  0.40519897     0.77580
C459        C  0.13563345  0.48004017  0.51802709     0.77450
C460        C  0.13579012  0.59330610  0.40736649     0.77410
O461        O  0.52122033  0.16110993  0.50555920    -0.71710
O462        O  0.60087064  0.15298517  0.41757422    -0.71930
O463        O  0.51672002  0.16055464  0.42150485    -0.71790
O464        O  0.60523230  0.15464813  0.50093689    -0.71800
O465        O  0.59651619  0.08766805  0.50570160    -0.71760
O466        O  0.51479139  0.09279783  0.41824363    -0.71780
O467        O  0.59898178  0.08530012  0.42149826    -0.71720
O468        O  0.51253153  0.09392560  0.50197311    -0.71910
V469        V  0.56083403  0.15606207  0.46134019     1.35240
V470        V  0.55586510  0.09116825  0.46181272     1.35170
C471        C  0.50282702  0.12872719  0.51806206     0.77520
C472        C  0.61432507  0.11760939  0.40563702     0.77580
C473        C  0.50106020  0.12783964  0.40595461     0.77450
C474        C  0.61532501  0.12039670  0.51753079     0.77410
O475        O  0.95027023  0.58047158  0.50329776    -0.71710
O476        O  0.94109922  0.49629674  0.41903340    -0.71930
O477        O  0.94854485  0.49692351  0.50316378    -0.71790
O478        O  0.94323531  0.58075575  0.41966466    -0.71800
O479        O  0.01071409  0.57600959  0.41214187    -0.71760
O480        O  0.01637899  0.49654990  0.49887777    -0.71780
O481        O  0.00893649  0.49233026  0.41529835    -0.71720
O482        O  0.01765436  0.58000909  0.49543637    -0.71910
V483        V  0.94700406  0.53848813  0.46102067     1.35240
V484        V  0.01206744  0.53624580  0.45548593     1.35170
C485        C  0.98568365  0.59450511  0.51354962     0.77520
C486        C  0.97352914  0.47957270  0.40339873     0.77580
C487        C  0.98359345  0.48334969  0.51581319     0.77450
C488        C  0.97636392  0.59289726  0.40224311     0.77410
O489        O  0.59839676  0.92406591  0.50763673    -0.71710
O490        O  0.51847184  0.92086682  0.41935808    -0.71930
O491        O  0.60202535  0.92563151  0.42380818    -0.71790
O492        O  0.51420457  0.91962121  0.50409335    -0.71800
O493        O  0.51222232  0.98735358  0.50811191    -0.71760
O494        O  0.59446152  0.99309122  0.42241676    -0.71780
O495        O  0.51089618  0.98828279  0.42326123    -0.71720
O496        O  0.59625865  0.99189244  0.50670408    -0.71910
V497        V  0.55802060  0.92383381  0.46380626     1.35240
V498        V  0.55350064  0.98886449  0.46516873     1.35170
C499        C  0.61178398  0.95857020  0.52127128     0.77520
C500        C  0.50141009  0.95394639  0.40605808     0.77580
C501        C  0.61253573  0.96044324  0.40896321     0.77450
C502        C  0.49908335  0.95250508  0.52058553     0.77410
O503        O  0.51435569  0.58053261  0.84725454    -0.71710
O504        O  0.59447062  0.49192449  0.84024767    -0.71930
O505        O  0.51029074  0.49657291  0.84443669    -0.71790
O506        O  0.59825276  0.57630909  0.84293446    -0.71800
O507        O  0.59981623  0.57651658  0.91091516    -0.71760
O508        O  0.51659119  0.49248584  0.91197324    -0.71780
O509        O  0.60045687  0.49239483  0.90799115    -0.71720
O510        O  0.51591466  0.57654894  0.91506322    -0.71910
V511        V  0.55447492  0.53626720  0.84498595     1.35240
V512        V  0.55809470  0.53451253  0.91015643     1.35170
C513        C  0.50123821  0.59321724  0.88243451     0.77520
C514        C  0.61140059  0.47744835  0.87295766     0.77580
C515        C  0.49891414  0.48066858  0.87858070     0.77450
C516        C  0.61330669  0.59056430  0.87674599     0.77410
O517        O  0.10307730  0.07869368  0.41548629    -0.71710
O518        O  0.01623553  0.99815053  0.42185419    -0.71930
O519        O  0.10026951  0.99487941  0.42138414    -0.71790
O520        O  0.01923650  0.08188092  0.41611727    -0.71800
O521        O  0.01508502  0.07405835  0.34859809    -0.71760
O522        O  0.10159559  0.99212208  0.35339477    -0.71780
O523        O  0.01777450  0.99029224  0.35427514    -0.71720
O524        O  0.09928810  0.07586376  0.34761584    -0.71910
V525        V  0.05967896  0.03823676  0.41740962     1.35240
V526        V  0.05854597  0.03318160  0.35224977     1.35170
C527        C  0.11505870  0.09177026  0.38033531     0.77520
C528        C  0.00270912  0.98016228  0.38920559     0.77580
C529        C  0.11495653  0.97913535  0.38820439     0.77450
C530        C  0.00299992  0.09233078  0.38165101     0.77410
O531        O  0.09593872  0.08169988  0.58623544    -0.71710
O532        O  0.01598332  0.99416943  0.58338859    -0.71930
O533        O  0.09988619  0.99811953  0.58241510    -0.71790
O534        O  0.01109482  0.07815101  0.58703268    -0.71800
O535        O  0.01372691  0.08427858  0.51944516    -0.71760
O536        O  0.09543572  0.99720275  0.51454150    -0.71780
O537        O  0.01151930  0.00018669  0.51584404    -0.71720
O538        O  0.09843056  0.08079772  0.51830151    -0.71910
V539        V  0.05564011  0.03821373  0.58349951     1.35240
V540        V  0.05470347  0.04066290  0.51830750     1.35170
C541        C  0.11211697  0.09477029  0.55279196     0.77520
C542        C  0.00013946  0.98242667  0.54904490     0.77580
C543        C  0.11196736  0.98340911  0.54764917     0.77450
C544        C  0.99777889  0.09532564  0.55401473     0.77410
O545        O  0.51522079  0.08290276  0.00396935    -0.71710
O546        O  0.51621979  0.99647391  0.92166421    -0.71930
O547        O  0.51583454  0.08043271  0.91945280    -0.71790
O548        O  0.51519491  0.99888784  0.00575731    -0.71800
O549        O  0.44717400  0.99957353  0.00478716    -0.71760
O550        O  0.44784019  0.08076701  0.91901411    -0.71780
O551        O  0.44821214  0.99636326  0.92099682    -0.71720
O552        O  0.44723120  0.08347620  0.00296578    -0.71910
V553        V  0.51429799  0.03971519  0.96270212     1.35240
V554        V  0.44894849  0.04007177  0.96191127     1.35170
C555        C  0.48109833  0.09780167  0.01748464     0.77520
C556        C  0.48251208  0.98144567  0.90769671     0.77580
C557        C  0.48180891  0.09466574  0.90486494     0.77450
C558        C  0.48096604  0.98512635  0.01948961     0.77410
O559        O  0.01107622  0.49828508  0.00708899    -0.71710
O560        O  0.09598866  0.49950239  0.92439529    -0.71930
O561        O  0.01263930  0.50172601  0.92297207    -0.71790
O562        O  0.09533570  0.49650480  0.00827921    -0.71800
O563        O  0.09460480  0.42874276  0.00518697    -0.71760
O564        O  0.01158132  0.43399784  0.91957829    -0.71780
O565        O  0.09495870  0.43180008  0.92079500    -0.71720
O566        O  0.01054113  0.43048467  0.00405710    -0.71910
V567        V  0.05370448  0.49766394  0.96573247     1.35240
V568        V  0.05288280  0.43253350  0.96258080     1.35170
C569        C  0.99647912  0.46412297  0.01963531     0.77520
C570        C  0.10924733  0.46600182  0.90807701     0.77580
C571        C  0.99888499  0.46890219  0.90611196     0.77450
C572        C  0.10935416  0.46187895  0.02090236     0.77410
O573        O  0.60509314  0.07819407  0.00411079    -0.71710
O574        O  0.61062668  0.99056880  0.92375401    -0.71930
O575        O  0.60907960  0.99369980  0.00763706    -0.71790
O576        O  0.60761872  0.07447730  0.92023094    -0.71800
O577        O  0.67521816  0.07965964  0.92480454    -0.71760
O578        O  0.67704410  0.99414671  0.00665453    -0.71780
O579        O  0.67842864  0.99530654  0.92270949    -0.71720
O580        O  0.67296001  0.07877027  0.00833143    -0.71910
V581        V  0.60940202  0.03432536  0.96403611     1.35240
V582        V  0.67462282  0.03683361  0.96565482     1.35170
C583        C  0.63789726  0.09352185  0.01970922     0.77520
C584        C  0.64530669  0.97850826  0.90911618     0.77580
C585        C  0.64358572  0.97940536  0.02115962     0.77450
C586        C  0.64119360  0.09127936  0.90825288     0.77410
O587        O  0.01852072  0.65530056  0.00460568    -0.71710
O588        O  0.09868404  0.65003492  0.91650163    -0.71930
O589        O  0.01461094  0.65431917  0.92009322    -0.71790
O590        O  0.10282640  0.65145208  0.00067592    -0.71800
O591        O  0.09550476  0.58438612  0.00612924    -0.71760
O592        O  0.01689927  0.58659596  0.91674469    -0.71780
O593        O  0.10061186  0.58257614  0.92219914    -0.71720
O594        O  0.01159958  0.58798821  0.00036648    -0.71910
V595        V  0.05858143  0.65163165  0.96052536     1.35240
V596        V  0.05618725  0.58666488  0.96130756     1.35170
C597        C  0.00093936  0.62234471  0.01686674     0.77520
C598        C  0.11386009  0.61515867  0.90511175     0.77580
C599        C  0.00170590  0.62066367  0.90392219     0.77450
C600        C  0.11343924  0.61748594  0.01778510     0.77410
C601        C  0.27942263  0.11417276  0.35366519    -0.09090
C602        C  0.26112208  0.15249329  0.36608190     0.07100
C603        C  0.28887768  0.18583186  0.37702363    -0.02860
C604        C  0.33237982  0.17968708  0.37545192    -0.07310
C605        C  0.34970227  0.14167725  0.36244757     0.06220
C606        C  0.32289448  0.10893101  0.35164107    -0.02330
Br607      Br  0.34514765  0.05700408  0.33218019    -0.02030
H608        H  0.26007167  0.08834841  0.34381800     0.10130
H609        H  0.35297366  0.20542452  0.38283033     0.08150
Br610      Br  0.27243024  0.24138027  0.39437243    -0.02460
C611        C  0.15693034  0.27120736  0.39554224    -0.09090
C612        C  0.13632595  0.24470554  0.36733613     0.07100
C613        C  0.10597970  0.26147132  0.34015732    -0.02860
C614        C  0.09977456  0.30480972  0.33895820    -0.07310
C615        C  0.12390147  0.33172970  0.36418907     0.06220
C616        C  0.15128631  0.31424866  0.39421251    -0.02330
Br617      Br  0.18713130  0.34660063  0.43011232    -0.02030
H618        H  0.17974226  0.25837962  0.41714376     0.10130
H619        H  0.07841356  0.31772474  0.31599252     0.08150
Br620      Br  0.07624565  0.22736543  0.30074826    -0.02460
C621        C  0.43898422  0.26212088  0.02551612    -0.09090
C622        C  0.46958183  0.24973732  0.05435840     0.07100
C623        C  0.49456869  0.28054928  0.07374227    -0.02860
C624        C  0.48750512  0.32276645  0.06522847    -0.07310
C625        C  0.45548302  0.33550883  0.03783862     0.06220
C626        C  0.43157817  0.30433702  0.01724175    -0.02330
Br627      Br  0.38802606  0.31625258  0.97755883    -0.02030
H628        H  0.41966336  0.23882913  0.01035391     0.10130
H629        H  0.50612030  0.34581635  0.08158628     0.08150
Br630      Br  0.53837894  0.26716131  0.11283313    -0.02460
C631        C  0.48921136  0.17512926  0.19623255    -0.09090
C632        C  0.47320715  0.14505073  0.16802463     0.07100
C633        C  0.45073109  0.11111538  0.18454541    -0.02860
C634        C  0.44606478  0.10752374  0.22787579    -0.07310
C635        C  0.46065690  0.13840961  0.25532332     0.06220
C636        C  0.48083979  0.17330874  0.23900486    -0.02330
Br637      Br  0.48985590  0.22256423  0.27235568    -0.02030
H638        H  0.50583684  0.20197834  0.18475022     0.10130
H639        H  0.42829580  0.08203043  0.24027452     0.08150
Br640      Br  0.41977723  0.07245558  0.15051127    -0.02460
C641        C  0.15120673  0.47490941  0.19156815    -0.09090
C642        C  0.16599396  0.44200412  0.16667691     0.07100
C643        C  0.18093156  0.40552375  0.18609260    -0.02860
C644        C  0.17909310  0.40183095  0.22965264    -0.07310
C645        C  0.16224323  0.43401900  0.25504977     0.06220
C646        C  0.14982291  0.47146456  0.23513740    -0.02330
Br647      Br  0.13038874  0.51945881  0.26435146    -0.02030
H648        H  0.14148217  0.50386950  0.17701083     0.10130
H649        H  0.19053501  0.37324034  0.24359326     0.08150
Br650      Br  0.20314110  0.35943102  0.15425870    -0.02460
C651        C  0.32071131  0.43087421  0.01068414    -0.09090
C652        C  0.34958968  0.45057183  0.03727113     0.07100
C653        C  0.33495302  0.47852771  0.06830987    -0.02860
C654        C  0.29203448  0.48517226  0.07297829    -0.07310
C655        C  0.26299326  0.46244297  0.04904319     0.06220
C656        C  0.27772905  0.43580126  0.01680509    -0.02330
Br657      Br  0.24177590  0.40050955  0.98412401    -0.02030
H658        H  0.33170768  0.40933278  0.98673794     0.10130
H659        H  0.28118462  0.50575270  0.09780606     0.08150
Br660      Br  0.37117828  0.50429340  0.10887941    -0.02460
C661        C  0.60825951  0.14732735  0.20001884    -0.09090
C662        C  0.63601337  0.13227417  0.16955101     0.07100
C663        C  0.67310895  0.11203316  0.18204924    -0.02860
C664        C  0.67962054  0.10284587  0.22406236    -0.07310
C665        C  0.65237819  0.11847601  0.25505826     0.06220
C666        C  0.61735994  0.14258710  0.24247469    -0.02330
Br667      Br  0.58669316  0.17750446  0.28060681    -0.02030
H668        H  0.58143593  0.16598579  0.19076145     0.10130
H669        H  0.70809294  0.08653070  0.23262704     0.08150
Br670      Br  0.71971615  0.10552884  0.14466595    -0.02460
C671        C  0.61565110  0.26699736  0.04025100    -0.09090
C672        C  0.64249610  0.24435960  0.06660633     0.07100
C673        C  0.67419960  0.26579852  0.08847477    -0.02860
C674        C  0.67767053  0.30890701  0.08479610    -0.07310
C675        C  0.65187308  0.33185190  0.05744030     0.06220
C676        C  0.62030714  0.31023566  0.03500792    -0.02330
Br677      Br  0.58376475  0.33678594  0.99533218    -0.02030
H678        H  0.59053868  0.25101933  0.02413703     0.10130
H679        H  0.70165823  0.32442993  0.10296793     0.08150
Br680      Br  0.71559274  0.23769472  0.12209429    -0.02460
C681        C  0.93004228  0.26066907  0.35469058    -0.09090
C682        C  0.95528602  0.24145604  0.38495164     0.07100
C683        C  0.98364247  0.26585700  0.40793119    -0.02860
C684        C  0.98795966  0.30843625  0.39892810    -0.07310
C685        C  0.96263236  0.32731192  0.36825122     0.06220
C686        C  0.93199798  0.30314456  0.34766857    -0.02330
Br687      Br  0.88888884  0.32617745  0.31244992    -0.02030
H688        H  0.90738267  0.24263072  0.33712088     0.10130
H689        H  0.01083795  0.32672725  0.41591431     0.08150
Br690      Br  0.01371993  0.24294220  0.45377174    -0.02460
C691        C  0.82743054  0.16726794  0.35369849    -0.09090
C692        C  0.85099935  0.13493716  0.37235384     0.07100
C693        C  0.82998259  0.09834022  0.38431964    -0.02860
C694        C  0.78663883  0.09549259  0.37905681    -0.07310
C695        C  0.76354301  0.12862910  0.36221403     0.06220
C696        C  0.78421852  0.16480968  0.34952554    -0.02330
Br697      Br  0.75471795  0.21230425  0.32743887    -0.02030
H698        H  0.84255644  0.19525230  0.34282323     0.10490
H699        H  0.77086096  0.06709275  0.38764812     0.08150
Br700      Br  0.85735850  0.05220475  0.41022035    -0.02460
C701        C  0.98276917  0.46181481  0.18934858    -0.09090
C702        C  0.95116478  0.44060894  0.16751121     0.07100
C703        C  0.92697960  0.41102232  0.18912312    -0.02860
C704        C  0.93150434  0.40683743  0.23226758    -0.07310
C705        C  0.96202470  0.42917657  0.25439895     0.06220
C706        C  0.98894887  0.45503296  0.23211103    -0.02330
Br707      Br  0.03759399  0.47630461  0.25805117    -0.02030
H708        H  0.00287715  0.48337948  0.17316710     0.10130
H709        H  0.91168862  0.38513433  0.24841823     0.08150
Br710      Br  0.89002478  0.37259923  0.16132947    -0.02460
C711        C  0.83417583  0.43131604  0.02813321    -0.09090
C712        C  0.84522316  0.46238757  0.05720260     0.07100
C713        C  0.81326393  0.48417658  0.07886240    -0.02860
C714        C  0.77143029  0.47449348  0.07122699    -0.07310
C715        C  0.76041510  0.44209069  0.04357875     0.06220
C716        C  0.79241608  0.42027826  0.02199386    -0.02330
Br717      Br  0.78186267  0.37330079  0.98604165    -0.02030
H718        H  0.85837689  0.41334888  0.01236910     0.10130
H719        H  0.74740689  0.49095655  0.08878265     0.08150
Br720      Br  0.82442648  0.52548348  0.12128017    -0.02460
C721        C  0.96473505  0.67925614  0.23076510    -0.09090
C722        C  0.98459613  0.64923601  0.25610669     0.07100
C723        C  0.00465211  0.61510922  0.23626517    -0.02860
C724        C  0.99845415  0.60749682  0.19345404    -0.07310
C725        C  0.97582222  0.63617904  0.16934743     0.06220
C726        C  0.96282228  0.67406931  0.18758459    -0.02330
Br727      Br  0.94563816  0.72073253  0.15430117    -0.02030
H728        H  0.95043492  0.70698788  0.24412858     0.10130
H729        H  0.01125417  0.57947058  0.17907468     0.08150
Br730      Br  0.04435058  0.58158098  0.26527741    -0.02460
C731        C  0.78570823  0.64831172  0.09392481    -0.09090
C732        C  0.76660647  0.62596490  0.06156286     0.07100
C733        C  0.79076806  0.59673250  0.03874405    -0.02860
C734        C  0.83437700  0.59450421  0.04513504    -0.07310
C735        C  0.85415576  0.61944693  0.07581169     0.06220
C736        C  0.82847617  0.64566746  0.10122876    -0.02330
Br737      Br  0.84764336  0.68260265  0.14448180    -0.02030
H738        H  0.76715207  0.66981017  0.11272677     0.10130
H739        H  0.85272792  0.57250827  0.02681876     0.08150
Br740      Br  0.76568902  0.55844627  0.00013127    -0.02460
C741        C  0.82392242  0.95864826  0.41838907    -0.09090
C742        C  0.85119448  0.94523690  0.38675137     0.07100
C743        C  0.83560294  0.93926276  0.34611298    -0.02860
C744        C  0.79278682  0.94192767  0.33863996    -0.07310
C745        C  0.76491306  0.95679469  0.36960384     0.06220
C746        C  0.78177523  0.96754786  0.40923632    -0.02330
Br747      Br  0.75136559  0.00057511  0.44918113    -0.02030
H748        H  0.83609933  0.96485309  0.44939460     0.10130
H749        H  0.78190082  0.93294555  0.30786792     0.08150
Br750      Br  0.87188307  0.93022383  0.29907349    -0.02460
C751        C  0.98823513  0.81213086  0.40436465    -0.09090
C752        C  0.95321726  0.83127878  0.38562360     0.07100
C753        C  0.92612423  0.80623825  0.36098755    -0.02860
C754        C  0.93385596  0.76375913  0.35681888    -0.07310
C755        C  0.96877039  0.74506932  0.37540088     0.06220
C756        C  0.99583881  0.76916225  0.40007739    -0.02330
Br757      Br  0.04410162  0.74484942  0.42647343    -0.02030
H758        H  0.01008593  0.83089325  0.42159002     0.10130
H759        H  0.91352616  0.74528123  0.33690509     0.08150
Br760      Br  0.88097348  0.82692384  0.32712044    -0.02460
C761        C  0.62981457  0.92722562  0.20071376    -0.09090
C762        C  0.65589011  0.94779329  0.17267874     0.07100
C763        C  0.68265586  0.97887392  0.18785656    -0.02860
C764        C  0.68162849  0.99023248  0.23019185    -0.07310
C765        C  0.65679276  0.96842416  0.25898033     0.06220
C766        C  0.63069358  0.93628734  0.24351219    -0.02330
Br767      Br  0.60073101  0.89865583  0.27881019    -0.02030
H768        H  0.61058746  0.90203090  0.18944045     0.10130
H769        H  0.70320479  0.01367887  0.24125226     0.08150
Br770      Br  0.72673870  0.99991889  0.15383260    -0.02460
C771        C  0.65138174  0.75614075  0.08765402    -0.09090
C772        C  0.66739366  0.74270934  0.04925066     0.07100
C773        C  0.68244537  0.77273207  0.02128446    -0.02860
C774        C  0.67921706  0.81544816  0.03118168    -0.07310
C775        C  0.66268217  0.82952579  0.06976019     0.06220
C776        C  0.64987684  0.79843769  0.09878700    -0.02330
Br777      Br  0.62805906  0.80861449  0.15401983    -0.02030
H778        H  0.64130353  0.73311432  0.11006263     0.10130
H779        H  0.69103630  0.83763438  0.00888347     0.08150
Br780      Br  0.70888960  0.75683236  0.96980776    -0.02460
C781        C  0.48945127  0.91061766  0.23856638    -0.09090
C782        C  0.45993955  0.93942342  0.25374365     0.07100
C783        C  0.43694602  0.96357797  0.22459050    -0.02860
C784        C  0.44397953  0.95878423  0.18162858    -0.07310
C785        C  0.47270015  0.92917721  0.16625138     0.06220
C786        C  0.49539679  0.90477759  0.19547215    -0.02330
Br787      Br  0.53395548  0.86188957  0.17923488    -0.02030
H788        H  0.50645020  0.89102091  0.26031969     0.10130
H789        H  0.42538232  0.97699848  0.15996358     0.08150
Br790      Br  0.39415446  0.00259854  0.24100213    -0.02460
C791        C  0.43588457  0.82128382  0.01755213    -0.09090
C792        C  0.46994679  0.83311388  0.04228404     0.07100
C793        C  0.50061029  0.80327770  0.05215366    -0.02860
C794        C  0.49401573  0.76117931  0.04340636    -0.07310
C795        C  0.45746214  0.74819235  0.02276076     0.06220
C796        C  0.43002478  0.77931873  0.00678053    -0.02330
Br797      Br  0.38513558  0.76748114  0.96896148    -0.02030
H798        H  0.41334886  0.84455646  0.00741552     0.10130
H799        H  0.51662926  0.73862389  0.05482170     0.08150
Br800      Br  0.55246515  0.81942607  0.07609667    -0.02460
C801        C  0.29297780  0.92201335  0.40782057    -0.09090
C802        C  0.26499461  0.93938924  0.37876404     0.07100
C803        C  0.28032515  0.95849211  0.34280232    -0.02860
C804        C  0.32317155  0.95880284  0.33571774    -0.07310
C805        C  0.35172133  0.94105570  0.36425398     0.06220
C806        C  0.33604595  0.92220452  0.40075735    -0.02330
Br807      Br  0.37011773  0.89057168  0.43887117    -0.02030
H808        H  0.28097649  0.90585234  0.43486110     0.10130
H809        H  0.33405881  0.97257795  0.30705594     0.08150
Br810      Br  0.24408882  0.98115052  0.30051638    -0.02460
C811        C  0.12460387  0.81651851  0.35666278    -0.09090
C812        C  0.15914102  0.82886486  0.38086298     0.07100
C813        C  0.18538730  0.79759739  0.39854006    -0.02860
C814        C  0.17645603  0.75555472  0.39172127    -0.07310
C815        C  0.14280029  0.74349805  0.36649589     0.06220
C816        C  0.11677755  0.77443006  0.34872643    -0.02330
Br817      Br  0.07082505  0.76143084  0.31236641    -0.02030
H818        H  0.10473281  0.83971667  0.34195948     0.10130
H819        H  0.19735251  0.73201271  0.40435411     0.08150
Br820      Br  0.23521684  0.80881135  0.43065704    -0.02460
C821        C  0.28597997  0.60392252  0.04556490    -0.09090
C822        C  0.26217213  0.63420307  0.06662566     0.07100
C823        C  0.28254711  0.66870512  0.08490795    -0.02860
C824        C  0.32591739  0.67250030  0.08161495    -0.07310
C825        C  0.35003734  0.64291517  0.05933507     0.06220
C826        C  0.32937382  0.60798908  0.04191020    -0.02330
Br827      Br  0.35764231  0.56608203  0.01037595    -0.02030
H828        H  0.27077894  0.57675899  0.03225300     0.10130
H829        H  0.34070956  0.69938318  0.09584939     0.08150
Br830      Br  0.25237342  0.71258404  0.11326562    -0.02460
C831        C  0.17698563  0.59735341  0.19934504    -0.09090
C832        C  0.15057973  0.61765606  0.17045410     0.07100
C833        C  0.11946515  0.64539396  0.18575149    -0.02860
C834        C  0.11547157  0.65204789  0.22879882    -0.07310
C835        C  0.14321333  0.63322699  0.25722762     0.06220
C836        C  0.17498556  0.60657895  0.24201279    -0.02330
Br837      Br  0.21906095  0.58531839  0.27719023    -0.02030
H838        H  0.20151032  0.57649096  0.18833817     0.10130
H839        H  0.09160639  0.67351562  0.24012403     0.08150
Br840      Br  0.08540674  0.67986613  0.15024291    -0.02460
C841        C  0.82818991  0.63758655  0.82757410    -0.09090
C842        C  0.85170515  0.61428711  0.85663960     0.07100
C843        C  0.83052588  0.59582216  0.89041082    -0.02860
C844        C  0.78729913  0.60274076  0.89536324    -0.07310
C845        C  0.76459631  0.62736215  0.86710430     0.06220
C846        C  0.78520513  0.64328304  0.83195205    -0.02330
Br847      Br  0.75583531  0.67133910  0.78768571    -0.02030
H848        H  0.84334067  0.65176436  0.80103795     0.10130
H849        H  0.77121118  0.58925885  0.92137008     0.08150
Br850      Br  0.85822307  0.55937117  0.92915051    -0.02460
C851        C  0.93277609  0.62950902  0.72361121    -0.09090
C852        C  0.96385511  0.61408244  0.75096684     0.07100
C853        C  0.00291291  0.60199034  0.73336118    -0.02860
C854        C  0.01131420  0.61021476  0.69099832    -0.07310
C855        C  0.98016613  0.62699992  0.66493837     0.06220
C856        C  0.93980136  0.63276574  0.68093924    -0.02330
Br857      Br  0.89209704  0.63970247  0.64520031    -0.02030
H858        H  0.90210802  0.63846637  0.73484979     0.10130
H859        H  0.04189950  0.60299239  0.67825135     0.08150
Br860      Br  0.04407590  0.57039400  0.76352506    -0.02460
C861        C  0.62426773  0.96866287  0.73557523    -0.09090
C862        C  0.65612477  0.94751183  0.75734620     0.07100
C863        C  0.69375473  0.93867358  0.73675830    -0.02860
C864        C  0.69675416  0.94410202  0.69390830    -0.07310
C865        C  0.66461585  0.96363327  0.67065467     0.06220
C866        C  0.62861089  0.97786661  0.69279454    -0.02330
Br867      Br  0.58567207  0.01222450  0.66836288    -0.02030
H868        H  0.59590930  0.97783329  0.75182637     0.10130
H869        H  0.72500084  0.93259871  0.67916921     0.08150
Br870      Br  0.74378613  0.92378917  0.76630918    -0.02460
C871        C  0.62664669  0.80858313  0.88505728    -0.09090
C872        C  0.65452561  0.82914941  0.85826631     0.07100
C873        C  0.68598012  0.80505638  0.83852942    -0.02860
C874        C  0.68723215  0.76195670  0.84300764    -0.07310
C875        C  0.66012869  0.74106934  0.87005949     0.06220
C876        C  0.62952921  0.76507174  0.89159811    -0.02330
Br877      Br  0.59370691  0.74107436  0.93283750    -0.02030
H878        H  0.60300664  0.82657111  0.90136184     0.10130
H879        H  0.71112919  0.74477214  0.82610883     0.08150
Br880      Br  0.73209236  0.82857593  0.80934332    -0.02460
C881        C  0.94232591  0.80694621  0.57388250    -0.09090
C882        C  0.96860051  0.82934952  0.54756162     0.07100
C883        C  0.00396084  0.80851931  0.53058664    -0.02860
C884        C  0.01029124  0.76554945  0.53817344    -0.07310
C885        C  0.98236216  0.74306804  0.56326280     0.06220
C886        C  0.94790610  0.76459090  0.58076409    -0.02330
Br887      Br  0.90456004  0.73840144  0.61175490    -0.02030
H888        H  0.91673237  0.82266337  0.58942843     0.10130
H889        H  0.03726897  0.74975326  0.52486316     0.08150
Br890      Br  0.04463254  0.83683242  0.49774638    -0.02460
C891        C  0.83488447  0.97253659  0.53731764    -0.09090
C892        C  0.85083176  0.93171414  0.54360823     0.07100
C893        C  0.82141798  0.90085743  0.55634251    -0.02860
C894        C  0.77876095  0.91074522  0.55938323    -0.07310
C895        C  0.76424930  0.95154488  0.55457828     0.06220
C896        C  0.79297125  0.98267650  0.54538374    -0.02330
Br897      Br  0.77661118  0.03975283  0.54806161    -0.02030
H898        H  0.85491230  0.99756179  0.52751736     0.10130
H899        H  0.75700657  0.88699751  0.56922068     0.08150
Br900      Br  0.83473472  0.84664794  0.57795192    -0.02460
C901        C  0.27543513  0.63751538  0.89773558    -0.09090
C902        C  0.26439590  0.61248477  0.86320438     0.07100
C903        C  0.29699373  0.59379848  0.83943044    -0.02860
C904        C  0.33871904  0.60352712  0.84800410    -0.07310
C905        C  0.34940123  0.62985556  0.88151236     0.06220
C906        C  0.31721852  0.64548401  0.90742986    -0.02330
Br907      Br  0.32793551  0.67676348  0.95727897    -0.02030
H908        H  0.25147546  0.65201613  0.91694979     0.10130
H909        H  0.36305498  0.59031199  0.82831124     0.08150
Br910      Br  0.28800226  0.55233970  0.79703708    -0.02460
C911        C  0.12305121  0.65206100  0.74322435    -0.09090
C912        C  0.15153806  0.62031123  0.75404807     0.07100
C913        C  0.16846046  0.59492265  0.72193951    -0.02860
C914        C  0.15948704  0.60347410  0.68022402    -0.07310
C915        C  0.13259350  0.63640227  0.66911110     0.06220
C916        C  0.11302665  0.65994845  0.70138805    -0.02330
Br917      Br  0.07122826  0.70219122  0.69122756    -0.02030
H918        H  0.10894915  0.67136082  0.76740932     0.10130
H919        H  0.17470295  0.58470292  0.65632269     0.08150
Br920      Br  0.20288532  0.54706257  0.73221049    -0.02460
C921        C  0.28257340  0.95844424  0.53226954    -0.09090
C922        C  0.26037674  0.93009360  0.55691668     0.07100
C923        C  0.28261332  0.90605943  0.58649157    -0.02860
C924        C  0.32600425  0.90829956  0.58875826    -0.07310
C925        C  0.34858766  0.93709065  0.56498383     0.06220
C926        C  0.32615266  0.96277057  0.53661248    -0.02330
Br927      Br  0.35205349  0.00623154  0.50510148    -0.02030
H928        H  0.26593471  0.97746780  0.50972439     0.10130
H929        H  0.34204368  0.88807847  0.61064468     0.08150
Br930      Br  0.25554188  0.87237307  0.62780323    -0.02460
C931        C  0.16422131  0.80066987  0.52178897    -0.09090
C932        C  0.14306245  0.83039564  0.54645721     0.07100
C933        C  0.11385511  0.81631840  0.57613813    -0.02860
C934        C  0.10703035  0.77350367  0.58052246    -0.07310
C935        C  0.13027141  0.74383095  0.55742827     0.06220
C936        C  0.15926313  0.75793954  0.52775222    -0.02330
Br937      Br  0.19812450  0.72135364  0.49956206    -0.02030
H938        H  0.18715973  0.81094622  0.49980843     0.10130
H939        H  0.08486812  0.76320856  0.60376215     0.08150
Br940      Br  0.08546332  0.85293234  0.61473847    -0.02460
C941        C  0.44294457  0.80723272  0.84093389    -0.09090
C942        C  0.46919916  0.82923815  0.86857907     0.07100
C943        C  0.48721312  0.80754441  0.90265578    -0.02860
C944        C  0.47962018  0.76470908  0.90752001    -0.07310
C945        C  0.45417451  0.74291562  0.87904593     0.06220
C946        C  0.43610785  0.76464306  0.84527242    -0.02330
Br947      Br  0.40435492  0.73739624  0.80192902    -0.02030
H948        H  0.42823981  0.82310183  0.81489193     0.10130
H949        H  0.49343096  0.74836676  0.93374013     0.08150
Br950      Br  0.52365832  0.83381119  0.94247950    -0.02460
C951        C  0.44920198  0.95755152  0.74824806    -0.09090
C952        C  0.48508086  0.93489165  0.75895829     0.07100
C953        C  0.50979125  0.91733319  0.72680107    -0.02860
C954        C  0.49834922  0.92306601  0.68478482    -0.07310
C955        C  0.46140375  0.94480739  0.67373366     0.06220
C956        C  0.43653497  0.96186721  0.70677567    -0.02330
Br957      Br  0.38511337  0.99263541  0.70035343    -0.02030
H958        H  0.42942356  0.97031931  0.77278192     0.10130
H959        H  0.51759645  0.90873760  0.66075544     0.08150
Br960      Br  0.55852972  0.88411960  0.73859337    -0.02460
C961        C  0.47420093  0.30934679  0.91226308    -0.09090
C962        C  0.44973336  0.33313394  0.88489072     0.07100
C963        C  0.42779667  0.31296081  0.85230138    -0.02860
C964        C  0.42969561  0.26981062  0.84823446    -0.07310
C965        C  0.45598372  0.24565307  0.87387856     0.06220
C966        C  0.47747419  0.26592000  0.90707516    -0.02330
Br967      Br  0.51255518  0.23719177  0.94590308    -0.02030
H968        H  0.49046857  0.32454322  0.93788545     0.10130
H969        H  0.41192789  0.25530806  0.82324959     0.08150
Br970      Br  0.39762776  0.34289206  0.80973351    -0.02460
C971        C  0.47932292  0.10909879  0.73798780    -0.09090
C972        C  0.48881410  0.14831134  0.75580253     0.07100
C973        C  0.49606096  0.18189948  0.72771957    -0.02860
C974        C  0.48469362  0.17808999  0.68548460    -0.07310
C975        C  0.47080720  0.14004336  0.66931639     0.06220
C976        C  0.47252992  0.10483311  0.69486074    -0.02330
Br977      Br  0.47019667  0.05065048  0.67020393    -0.02030
H978        H  0.47625133  0.08171705  0.75721928     0.10130
H979        H  0.48755003  0.20466227  0.66498871     0.08150
Br980      Br  0.52522052  0.23223073  0.74301911    -0.02460
C981        C  0.18209506  0.26754697  0.59127411    -0.09090
C982        C  0.15964102  0.24356113  0.56230897     0.07100
C983        C  0.13349304  0.26430255  0.53343204    -0.02860
C984        C  0.12641394  0.30762281  0.53700132    -0.07310
C985        C  0.14809213  0.33129520  0.56713598     0.06220
C986        C  0.17842634  0.31083567  0.59210535    -0.02330
Br987      Br  0.22029218  0.34004473  0.62341181    -0.02030
H988        H  0.20431380  0.25270231  0.61216488     0.10130
H989        H  0.10474100  0.32282339  0.51581006     0.08150
Br990      Br  0.11248168  0.23550459  0.48545936    -0.02460
C991        C  0.28241016  0.09999133  0.58026387    -0.09090
C992        C  0.26622077  0.13032971  0.55310776     0.07100
C993        C  0.29467014  0.15323978  0.52879280    -0.02860
C994        C  0.33774203  0.14934441  0.53529848    -0.07310
C995        C  0.35394116  0.12180912  0.56516274     0.06220
C996        C  0.32583746  0.09530719  0.58594271    -0.02330
Br997      Br  0.34508609  0.05106440  0.62065440    -0.02030
H998        H  0.26132589  0.08100438  0.59833090     0.10130
H999        H  0.35861998  0.16912945  0.51784362     0.08150
Br1000     Br  0.27653910  0.19070037  0.48624675    -0.02460
C1001       C  0.28449008  0.49028635  0.88479399    -0.09090
C1002       C  0.25857571  0.45819255  0.87084399     0.07100
C1003       C  0.27513449  0.41785915  0.86606378    -0.02860
C1004       C  0.31801057  0.41127871  0.86920384    -0.07310
C1005       C  0.34526387  0.44341342  0.88205102     0.06220
C1006       C  0.32729254  0.48288149  0.89139230    -0.02330
Br1007     Br  0.35798062  0.52686285  0.91621738    -0.02030
H1008       H  0.27135509  0.52103436  0.89068774     0.10130
H1009       H  0.32943013  0.38031497  0.86180516     0.08150
Br1010     Br  0.24007480  0.36997945  0.85939868    -0.02460
C1011       C  0.17064843  0.42285695  0.69126039    -0.09090
C1012       C  0.13894307  0.44475174  0.67044945     0.07100
C1013       C  0.11473201  0.47387868  0.69351964    -0.02860
C1014       C  0.12195809  0.47893307  0.73686437    -0.07310
C1015       C  0.15343478  0.45573609  0.75757091     0.06220
C1016       C  0.17712191  0.42670257  0.73389346    -0.02330
Br1017     Br  0.21653818  0.38762467  0.75679337    -0.02030
H1018       H  0.19024323  0.40129476  0.67425823     0.10130
H1019       H  0.10361236  0.50152803  0.75428331     0.08150
Br1020     Br  0.07153346  0.50669343  0.66777399    -0.02460
C1021       C  0.99415331  0.43430702  0.74178359    -0.09090
C1022       C  0.96273775  0.46325747  0.75284199     0.07100
C1023       C  0.94132293  0.48452557  0.72041168    -0.02860
C1024       C  0.95027089  0.47544691  0.67859178    -0.07310
C1025       C  0.98007836  0.44502856  0.66753753     0.06220
C1026       C  0.00279484  0.42488844  0.69980466    -0.02330
Br1027     Br  0.04637374  0.38459851  0.68913280    -0.02030
H1028       H  0.01102934  0.41756987  0.76590770     0.10130
H1029       H  0.93244069  0.49122074  0.65448114     0.08150
Br1030     Br  0.89882309  0.52597947  0.73000047    -0.02460
C1031       C  0.82127228  0.48975772  0.84003075    -0.09090
C1032       C  0.85074267  0.46423785  0.86042114     0.07100
C1033       C  0.83674462  0.43102788  0.88504131    -0.02860
C1034       C  0.79412817  0.42296196  0.88741079    -0.07310
C1035       C  0.76445055  0.44700988  0.86566861     0.06220
C1036       C  0.77844273  0.48133908  0.84211677    -0.02330
Br1037     Br  0.74220909  0.51439406  0.80738016    -0.02030
H1038       H  0.83187881  0.51508879  0.82056916     0.10130
H1039       H  0.78423602  0.39592858  0.90438718     0.08150
Br1040     Br  0.87414006  0.39211869  0.91173081    -0.02460
C1041       C  0.94437374  0.27607000  0.52877926    -0.09090
C1042       C  0.96828758  0.24816498  0.55290279     0.07100
C1043       C  0.00190836  0.26357041  0.57701084    -0.02860
C1044       C  0.00921139  0.30641356  0.57849991    -0.07310
C1045       C  0.98287442  0.33452335  0.55733703     0.06220
C1046       C  0.95097851  0.31894062  0.53111605    -0.02330
Br1047     Br  0.91179784  0.35414302  0.50200662    -0.02030
H1048       H  0.91883672  0.26455136  0.50966626     0.10130
H1049       H  0.03391004  0.31814220  0.59857849     0.08150
Br1050     Br  0.03534947  0.22910006  0.61311028    -0.02460
C1051       C  0.82828493  0.16826267  0.60556271    -0.09090
C1052       C  0.84998790  0.15224659  0.57085758     0.07100
C1053       C  0.82675484  0.13902538  0.53598254    -0.02860
C1054       C  0.78301371  0.13696074  0.53769763    -0.07310
C1055       C  0.76128951  0.14793117  0.57441963     0.06220
C1056       C  0.78441379  0.16729582  0.60715831    -0.02330
Br1057     Br  0.75813910  0.19794404  0.65205565    -0.02030
H1058       H  0.84550262  0.18269100  0.63098980     0.10130
H1059       H  0.76642860  0.12457076  0.51084735     0.08150
Br1060     Br  0.85392862  0.12634585  0.48461420    -0.02460
C1061       C  0.67835161  0.26165678  0.82206137    -0.09090
C1062       C  0.65810799  0.23966890  0.85419704     0.07100
C1063       C  0.64273694  0.26341195  0.88860677    -0.02860
C1064       C  0.64583421  0.30719422  0.88916753    -0.07310
C1065       C  0.66466949  0.32869284  0.85631765     0.06220
C1066       C  0.68125910  0.30528802  0.82260645    -0.02330
Br1067     Br  0.70657932  0.33139263  0.77523265    -0.02030
H1068       H  0.69187367  0.24491878  0.79578894     0.10130
H1069       H  0.63418734  0.32460191  0.91590619     0.08150
Br1070     Br  0.61702131  0.23904927  0.93607441    -0.02460
C1071       C  0.60878513  0.14221438  0.72692157    -0.09090
C1072       C  0.63319341  0.12026544  0.75601086     0.07100
C1073       C  0.66184781  0.08968401  0.74119235    -0.02860
C1074       C  0.66721049  0.08372745  0.69812757    -0.07310
C1075       C  0.64564921  0.10871727  0.66921025     0.06220
C1076       C  0.61552722  0.13768534  0.68401687    -0.02330
Br1077     Br  0.58857475  0.17768804  0.64832059    -0.02030
H1078       H  0.58709299  0.16589532  0.73780173     0.10130
H1079       H  0.69079350  0.06176595  0.68718035     0.08150
Br1080     Br  0.69954473  0.05978358  0.77724115    -0.02460
loop_ 
_geom_bond_atom_site_label_1 
_geom_bond_atom_site_label_2 
_geom_bond_distance 
_geom_bond_site_symmetry_2 
_ccdc_geom_bond_type 
C1            C2   1.406       .  A
C1            C6   1.398       .  A
C1         C1072   1.486       .  S
C2            C3   1.410       .  A
C2            H7   1.082       .  S
C3            C4   1.418       .  A
C3         C1062   1.515       .  S
C4            C5   1.413       .  A
C4            H8   1.080       .  S
C5            C6   1.399       .  A
C5          C586   1.475       .  S
C6            H9   1.084       .  S
C10          C11   1.395       .  A
C10          C15   1.414       .  A
C10        C1052   1.486       .  S
C11          C12   1.401       .  A
C11          H16   1.084       .  S
C12          C13   1.401       .  A
C12        C1042   1.477       .  S
C13          C14   1.401       .  A
C13          H17   1.084   1_655  S
C14          C15   1.413       .  A
C14         C544   1.476       .  S
C15          H18   1.084       .  S
C19          C20   1.403       .  A
C19          C24   1.411       .  A
C19        C1022   1.493       .  S
C20          C21   1.400       .  A
C20          H25   1.083       .  S
C21          C22   1.399       .  A
C21        C1032   1.475       .  S
C22          C23   1.397       .  A
C22          H26   1.084       .  S
C23          C24   1.408       .  A
C23         C571   1.465       .  S
C24          H27   1.084   1_655  S
C28          C29   1.406       .  A
C28          C33   1.401       .  A
C28        C1035   1.488       .  S
C29          C30   1.401       .  A
C29          H34   1.083       .  S
C30          C31   1.412       .  A
C30        C1065   1.493       .  S
C31          C32   1.412       .  A
C31          H35   1.084       .  S
C32          C33   1.401       .  A
C32         C514   1.473       .  S
C33          H36   1.083       .  S
C37          C38   1.398       .  A
C37          C42   1.402       .  A
C37        C1045   1.475       .  S
C38          C39   1.397       .  A
C38          H43   1.084       .  S
C39          C40   1.405       .  A
C39         C487   1.462       .  S
C40          C41   1.410       .  A
C40          H44   1.083       .  S
C41          C42   1.401       .  A
C41        C1025   1.490       .  S
C42          H45   1.084       .  S
C46          C47   1.406       .  A
C46          C51   1.416       .  A
C46        C1055   1.505       .  S
C47          C48   1.400       .  A
C47          H52   1.081       .  S
C48          C49   1.399       .  A
C48        C1075   1.481       .  S
C49          C50   1.401       .  A
C49          H53   1.085       .  S
C50          C51   1.413       .  A
C50         C474   1.475       .  S
C51          H54   1.083       .  S
C55          C56   1.408       .  A
C55          C60   1.406       .  A
C55        C1015   1.493       .  S
C56          C57   1.409       .  A
C56          H61   1.083       .  S
C57          C58   1.398       .  A
C57         C570   1.460       .  S
C58          C59   1.393       .  A
C58          H62   1.084       .  S
C59          C60   1.399       .  A
C59        C1002   1.468       .  S
C60          H63   1.083       .  S
C64          C65   1.401       .  A
C64          C69   1.411       .  A
C64         C992   1.494       .  S
C65          C66   1.399       .  A
C65          H70   1.083       .  S
C66          C67   1.406       .  A
C66         C982   1.488       .  S
C67          C68   1.405       .  A
C67          H71   1.083       .  S
C68          C69   1.413       .  A
C68         C541   1.476       .  S
C69          H72   1.083       .  S
C73          C74   1.402       .  A
C73          C78   1.418       .  A
C73         C972   1.509       .  S
C74          C75   1.402       .  A
C74          H79   1.075       .  S
C75          C76   1.399       .  A
C75         C965   1.494       .  S
C76          C77   1.403       .  A
C76          H80   1.083       .  S
C77          C78   1.413       .  A
C77         C557   1.473       .  S
C78          H81   1.081       .  S
C82          C83   1.400       .  A
C82          C87   1.393       .  A
C82         C962   1.474       .  S
C83          C84   1.404       .  A
C83          H88   1.084       .  S
C84          C85   1.408       .  A
C84         C515   1.471       .  S
C85          C86   1.415       .  A
C85          H89   1.079       .  S
C86          C87   1.401       .  A
C86        C1005   1.503       .  S
C87          H90   1.081       .  S
C91          C92   1.398       .  A
C91          C96   1.409       .  A
C91         C975   1.480       .  S
C92          C93   1.398       .  A
C92          H97   1.082       .  S
C93          C94   1.404       .  A
C93         C471   1.464       .  S
C94          C95   1.408       .  A
C94          H98   1.084       .  S
C95          C96   1.410       .  A
C95         C995   1.494       .  S
C96          H99   1.084       .  S
C100        C101   1.400       .  A
C100        C105   1.406       .  A
C100        C985   1.491       .  S
C101        C102   1.405       .  A
C101        H106   1.085       .  S
C102        C103   1.403       .  A
C102       C1012   1.492       .  S
C103        C104   1.408       .  A
C103        H107   1.083       .  S
C104        C105   1.410       .  A
C104        C459   1.470       .  S
C105        H108   1.083       .  S
C109        C110   1.398       .  A
C109        C114   1.405       .  A
C109        C952   1.482       .  S
C110        C111   1.407       .  A
C110        H115   1.083       .  S
C111        C112   1.409       .  A
C111        C942   1.493       .  S
C112        C113   1.407       .  A
C112        H116   1.082       .  S
C113        C114   1.402       .  A
C113        C556   1.472       .  S
C114        H117   1.084       .  S
C118        C119   1.402       .  A
C118        C123   1.407       .  A
C118        C922   1.488       .  S
C119        C120   1.402       .  A
C119        H124   1.083       .  S
C120        C121   1.402       .  A
C120        C932   1.489       .  S
C121        C122   1.402       .  A
C121        H125   1.081       .  S
C122        C123   1.407       .  A
C122        C543   1.466       .  S
C123        H126   1.084       .  S
C127        C128   1.405       .  A
C127        C132   1.404       .  A
C127        C912   1.486       .  S
C128        C129   1.406       .  A
C128        H133   1.083       .  S
C129        C130   1.411       .  A
C129        C902   1.494       .  S
C130        C131   1.402       .  A
C130        H134   1.083       .  S
C131        C132   1.399       .  A
C131        C598   1.468       .  S
C132        H135   1.083       .  S
C136        C137   1.405       .  A
C136        C141   1.400       .  A
C136        C905   1.485       .  S
C137        C138   1.401       .  A
C137        H142   1.080       .  S
C138        C139   1.405       .  A
C138        C513   1.470       .  S
C139        C140   1.407       .  A
C139        H143   1.084       .  S
C140        C141   1.403       .  A
C140        C945   1.482       .  S
C141        H144   1.083       .  S
C145        C146   1.401       .  A
C145        C150   1.408       .  A
C145        C915   1.488       .  S
C146        C147   1.402       .  A
C146        H151   1.082       .  S
C147        C148   1.405       .  A
C147        C935   1.484       .  S
C148        C149   1.401       .  A
C148        H152   1.083       .  S
C149        C150   1.400       .  A
C149        C457   1.466       .  S
C150        H153   1.084       .  S
C154        C155   1.400       .  A
C154        C159   1.414       .  A
C154        C955   1.505       .  S
C155        C156   1.407       .  A
C155        H160   1.077       .  S
C156        C157   1.407       .  A
C156        C925   1.497       .  S
C157        C158   1.406       .  A
C157        H161   1.082       .  S
C158        C159   1.411       .  A
C158        C502   1.480       .  S
C159        H162   1.083       .  S
C163        C164   1.409       .  A
C163        C168   1.417       .  A
C163        C892   1.519       .  S
C164        C165   1.412       .  A
C164        H169   1.078       .  S
C165        C166   1.402       .  A
C165        C882   1.496       .  S
C166        C167   1.401       .  A
C166        H170   1.081   1_655  S
C167        C168   1.404       .  A
C167        C542   1.471   1_655  S
C168        H171   1.080       .  S
C172        C173   1.407       .  A
C172        C177   1.396       .  A
C172        C862   1.480       .  S
C173        C174   1.409       .  A
C173        H178   1.083       .  S
C174        C175   1.410       .  A
C174        C872   1.499       .  S
C175        C176   1.410       .  A
C175        H179   1.084       .  S
C176        C177   1.401       .  A
C176        C584   1.467       .  S
C177        H180   1.084       .  S
C181        C182   1.408       .  A
C181        C186   1.408       .  A
C181        C852   1.504       .  S
C182        C183   1.401       .  A
C182        H187   1.079       .  S
C183        C184   1.405       .  A
C183        C842   1.493       .  S
C184        C185   1.404       .  A
C184        H188   1.082       .  S
C185        C186   1.405       .  A
C185        C599   1.467   1_655  S
C186        H189   1.081   1_655  S
C190        C191   1.405       .  A
C190        C195   1.398       .  A
C190        C855   1.479       .  S
C191        C192   1.407       .  A
C191        H196   1.083       .  S
C192        C193   1.407       .  A
C192        C885   1.491       .  S
C193        C194   1.407       .  A
C193        H197   1.084       .  S
C194        C195   1.403       .  A
C194        C485   1.466       .  S
C195        H198   1.084       .  S
C199        C200   1.398       .  A
C199        C204   1.401       .  A
C199        C845   1.483       .  S
C200        C201   1.407       .  A
C200        H205   1.084       .  S
C201        C202   1.412       .  A
C201        C875   1.501       .  S
C202        C203   1.412       .  A
C202        H206   1.082       .  S
C203        C204   1.405       .  A
C203        C516   1.473       .  S
C204        H207   1.083       .  S
C208        C209   1.396       .  A
C208        C213   1.399       .  A
C208        C895   1.479       .  S
C209        C210   1.411       .  A
C209        H214   1.082       .  S
C210        C211   1.413       .  A
C210        C865   1.505       .  S
C211        C212   1.407       .  A
C211        H215   1.080       .  S
C212        C213   1.403       .  A
C212        C499   1.470       .  S
C213        H216   1.083       .  S
C217        C218   1.393       .  A
C217        C222   1.406       .  A
C217        C822   1.478       .  S
C218        C219   1.399       .  A
C218        H223   1.084       .  S
C219        C220   1.407       .  A
C219        C832   1.485       .  S
C220        C221   1.407       .  A
C220        H224   1.083       .  S
C221        C222   1.409       .  A
C221        C600   1.473       .  S
C222        H225   1.084       .  S
C226        C227   1.396       .  A
C226        C231   1.392       .  A
C226        C802   1.462       .  S
C227        C228   1.399       .  A
C227        H232   1.084       .  S
C228        C229   1.406       .  A
C228        C529   1.459       .  S
C229        C230   1.410       .  A
C229        H233   1.084       .  S
C230        C231   1.396       .  A
C230        C812   1.485       .  S
C231        H234   1.082       .  S
C235        C236   1.405       .  A
C235        C240   1.414       .  A
C235        C785   1.495       .  S
C236        C237   1.403       .  A
C236        H241   1.083       .  S
C237        C238   1.395       .  A
C237        C792   1.475       .  S
C238        C239   1.399       .  A
C238        H242   1.084   1_554  S
C239        C240   1.408       .  A
C239        C558   1.467       .  S
C240        H243   1.083       .  S
C244        C245   1.404       .  A
C244        C249   1.408       .  A
C244        C825   1.497       .  S
C245        C246   1.403       .  A
C245        H250   1.080       .  S
C246        C247   1.409       .  A
C246        C795   1.492       .  S
C247        C248   1.404       .  A
C247        H251   1.084       .  S
C248        C249   1.405       .  A
C248        C443   1.474       .  S
C249        H252   1.083       .  S
C253        C254   1.398       .  A
C253        C258   1.411       .  A
C253        C782   1.490       .  S
C254        C255   1.402       .  A
C254        H259   1.083       .  S
C255        C256   1.403       .  A
C255        C805   1.485       .  S
C256        C257   1.399       .  A
C256        H260   1.083       .  S
C257        C258   1.411       .  A
C257        C500   1.471       .  S
C258        H261   1.084       .  S
C262        C263   1.403       .  A
C262        C267   1.397       .  A
C262        C835   1.477       .  S
C263        C264   1.398       .  A
C263        H268   1.078       .  S
C264        C265   1.403       .  A
C264        C460   1.467       .  S
C265        C266   1.407       .  A
C265        H269   1.084       .  S
C266        C267   1.398       .  A
C266        C815   1.475       .  S
C267        H270   1.084       .  S
C271        C272   1.400       .  A
C271        C276   1.399       .  A
C271        C762   1.479       .  S
C272        C273   1.405       .  A
C272        H277   1.078       .  S
C273        C274   1.422       .  A
C273        C775   1.513       .  S
C274        C275   1.414       .  A
C274        H278   1.082       .  S
C275        C276   1.399       .  A
C275        C585   1.478       .  S
C276        H279   1.084       .  S
C280        C281   1.394       .  A
C280        C285   1.402       .  A
C280        C742   1.473       .  S
C281        C282   1.400       .  A
C281        H286   1.083       .  S
C282        C283   1.412       .  A
C282        C752   1.489       .  S
C283        C284   1.407       .  A
C283        H287   1.083   1_655  S
C284        C285   1.402       .  A
C284        C528   1.472   1_655  S
C285        H288   1.079       .  S
C289        C290   1.415       .  A
C289        C294   1.403       .  A
C289        C735   1.499       .  S
C290        C291   1.412       .  A
C290        H295   1.083       .  S
C291        C292   1.401       .  A
C291        C597   1.469   1_655  S
C292        C293   1.395       .  A
C292        H296   1.083   1_655  S
C293        C294   1.400       .  A
C293        C725   1.470       .  S
C294        H297   1.083       .  S
C298        C299   1.406       .  A
C298        C303   1.405       .  A
C298        C732   1.486       .  S
C299        C300   1.396       .  A
C299        H304   1.085       .  S
C300        C301   1.408       .  A
C300        C772   1.485       .  S
C301        C302   1.409       .  A
C301        H305   1.084       .  S
C302        C303   1.407       .  A
C302        C446   1.473       .  S
C303        H306   1.083       .  S
C307        C308   1.398       .  A
C307        C312   1.411       .  A
C307        C722   1.492       .  S
C308        C309   1.396       .  A
C308        H313   1.082       .  S
C309        C310   1.395       .  A
C309        C755   1.466       .  S
C310        C311   1.400       .  A
C310        H314   1.084       .  S
C311        C312   1.403       .  A
C311        C488   1.460       .  S
C312        H315   1.082       .  S
C316        C317   1.401       .  A
C316        C321   1.406       .  A
C316        C765   1.492       .  S
C317        C318   1.405       .  A
C317        H322   1.079       .  S
C318        C319   1.410       .  A
C318        C745   1.500       .  S
C319        C320   1.403       .  A
C319        H323   1.081       .  S
C320        C321   1.404       .  A
C320        C501   1.471       .  S
C321        H324   1.083       .  S
C325        C326   1.404       .  A
C325        C330   1.397       .  A
C325        C712   1.479       .  S
C326        C327   1.404       .  A
C326        H331   1.084       .  S
C327        C328   1.405       .  A
C327        C569   1.466       .  S
C328        C329   1.406       .  A
C328        H332   1.084   1_655  S
C329        C330   1.398       .  A
C329        C702   1.483       .  S
C330        H333   1.082       .  S
C334        C335   1.400       .  A
C334        C339   1.408       .  A
C334        C692   1.492       .  S
C335        C336   1.395       .  A
C335        H340   1.084       .  S
C336        C337   1.402       .  A
C336        C682   1.480       .  S
C337        C338   1.404       .  A
C337        H341   1.083   1_655  S
C338        C339   1.406       .  A
C338        C530   1.465   1_655  S
C339        H342   1.080       .  S
C343        C344   1.399       .  A
C343        C348   1.395       .  A
C343        C662   1.470       .  S
C344        C345   1.398       .  A
C344        H349   1.085       .  S
C345        C346   1.411       .  A
C345        C583   1.469       .  S
C346        C347   1.411       .  A
C346        H350   1.083       .  S
C347        C348   1.399       .  A
C347        C672   1.484       .  S
C348        H351   1.084       .  S
C352        C353   1.407       .  A
C352        C357   1.409       .  A
C352        C675   1.497       .  S
C353        C354   1.401       .  A
C353        H358   1.080       .  S
C354        C355   1.400       .  A
C354        C715   1.484       .  S
C355        C356   1.397       .  A
C355        H359   1.085       .  S
C356        C357   1.407       .  A
C356        C444   1.464       .  S
C357        H360   1.083       .  S
C361        C362   1.400       .  A
C361        C366   1.406       .  A
C361        C665   1.486       .  S
C362        C363   1.394       .  A
C362        H367   1.083       .  S
C363        C364   1.401       .  A
C363        C695   1.467       .  S
C364        C365   1.402       .  A
C364        H368   1.084       .  S
C365        C366   1.401       .  A
C365        C472   1.463       .  S
C366        H369   1.083       .  S
C370        C371   1.398       .  A
C370        C375   1.404       .  A
C370        C685   1.479       .  S
C371        C372   1.394       .  A
C371        H376   1.084       .  S
C372        C373   1.408       .  A
C372        C705   1.484       .  S
C373        C374   1.407       .  A
C373        H377   1.084       .  S
C374        C375   1.406       .  A
C374        C486   1.470       .  S
C375        H378   1.084       .  S
C379        C380   1.400       .  A
C379        C384   1.402       .  A
C379        C655   1.480       .  S
C380        C381   1.395       .  A
C380        H385   1.084       .  S
C381        C382   1.407       .  A
C381        C642   1.477       .  S
C382        C383   1.408       .  A
C382        H386   1.084       .  S
C383        C384   1.403       .  A
C383        C572   1.469       .  S
C384        H387   1.084       .  S
C388        C389   1.411       .  A
C388        C393   1.404       .  A
C388        C632   1.495       .  S
C389        C390   1.406       .  A
C389        H394   1.082       .  S
C390        C391   1.402       .  A
C390        C555   1.471       .  S
C391        C392   1.404       .  A
C391        H395   1.081       .  S
C392        C393   1.397       .  A
C392        C622   1.483       .  S
C393        H396   1.083       .  S
C397        C398   1.402       .  A
C397        C402   1.422       .  A
C397        C602   1.512       .  S
C398        C399   1.400       .  A
C398        H403   1.078       .  S
C399        C400   1.395       .  A
C399        C612   1.476       .  S
C400        C401   1.400       .  A
C400        H404   1.084       .  S
C401        C402   1.413       .  A
C401        C527   1.473       .  S
C402        H405   1.082       .  S
C406        C407   1.403       .  A
C406        C411   1.397       .  A
C406        C635   1.475       .  S
C407        C408   1.405       .  A
C407        H412   1.084       .  S
C408        C409   1.411       .  A
C408        C473   1.475       .  S
C409        C410   1.409       .  A
C409        H413   1.084       .  S
C410        C411   1.399       .  A
C410        C605   1.481       .  S
C411        H414   1.084       .  S
C415        C416   1.399       .  A
C415        C420   1.401       .  A
C415        C615   1.482       .  S
C416        C417   1.400       .  A
C416        H421   1.084       .  S
C417        C418   1.408       .  A
C417        C458   1.472       .  S
C418        C419   1.415       .  A
C418        H422   1.080       .  S
C419        C420   1.407       .  A
C419        C645   1.505       .  S
C420        H423   1.082       .  S
C424        C425   1.403       .  A
C424        C429   1.412       .  A
C424        C625   1.493       .  S
C425        C426   1.401       .  A
C425        H430   1.083       .  S
C426        C427   1.397       .  A
C426        C652   1.476       .  S
C427        C428   1.395       .  A
C427        H431   1.082       .  S
C428        C429   1.407       .  A
C428        C445   1.465       .  S
C429        H432   1.083       .  S
O433        V441   1.906       .  S
O433        C443   1.264       .  A
O434        V441   1.902       .  S
O434        C444   1.264       .  A
O435        V441   1.900       .  S
O435        C445   1.262       .  A
O436        V441   1.900       .  S
O436        C446   1.262       .  A
O437        V442   1.912       .  S
O437        C446   1.267       .  A
O438        V442   1.900       .  S
O438        C445   1.264       .  A
O439        V442   1.897       .  S
O439        C444   1.262       .  A
O440        V442   1.904       .  S
O440        C443   1.264       .  A
V441        V442   2.089       .  T
O447        V455   1.894       .  S
O447        C457   1.257       .  A
O448        V455   1.896       .  S
O448        C458   1.263       .  A
O449        V455   1.901       .  S
O449        C459   1.262       .  A
O450        V455   1.902       .  S
O450        C460   1.263       .  A
O451        V456   1.902       .  S
O451        C460   1.264       .  A
O452        V456   1.908       .  S
O452        C459   1.265       .  A
O453        V456   1.912       .  S
O453        C458   1.266       .  A
O454        V456   1.908       .  S
O454        C457   1.266       .  A
V455        V456   2.085       .  T
O461        V469   1.906       .  S
O461        C471   1.266       .  A
O462        V469   1.901       .  S
O462        C472   1.265       .  A
O463        V469   1.902       .  S
O463        C473   1.263       .  A
O464        V469   1.899       .  S
O464        C474   1.262       .  A
O465        V470   1.913       .  S
O465        C474   1.268       .  A
O466        V470   1.912       .  S
O466        C473   1.267       .  A
O467        V470   1.897       .  S
O467        C472   1.261       .  A
O468        V470   1.893       .  S
O468        C471   1.261       .  A
V469        V470   2.087       .  T
O475        V483   1.902       .  S
O475        C485   1.263       .  A
O476        V483   1.907       .  S
O476        C486   1.265       .  A
O477        V483   1.903       .  S
O477        C487   1.265       .  A
O478        V483   1.904       .  S
O478        C488   1.264       .  A
O479        V484   1.891       .  S
O479        C488   1.260   1_455  A
O480        V484   1.894       .  S
O480        C487   1.259   1_455  A
O481        V484   1.901       .  S
O481        C486   1.263   1_455  A
O482        V484   1.898       .  S
O482        C485   1.259   1_455  A
V483        V484   2.088   1_655  T
O489        V497   1.902       .  S
O489        C499   1.263       .  A
O490        V497   1.901       .  S
O490        C500   1.264       .  A
O491        V497   1.906       .  S
O491        C501   1.265       .  A
O492        V497   1.912       .  S
O492        C502   1.267       .  A
O493        V498   1.909       .  S
O493        C502   1.265       .  A
O494        V498   1.902       .  S
O494        C501   1.263       .  A
O495        V498   1.908       .  S
O495        C500   1.265       .  A
O496        V498   1.905       .  S
O496        C499   1.265       .  A
V497        V498   2.088       .  T
O503        V511   1.905       .  S
O503        C513   1.264       .  A
O504        V511   1.908       .  S
O504        C514   1.266       .  A
O505        V511   1.909       .  S
O505        C515   1.265       .  A
O506        V511   1.909       .  S
O506        C516   1.265       .  A
O507        V512   1.903       .  S
O507        C516   1.264       .  A
O508        V512   1.900       .  S
O508        C515   1.263       .  A
O509        V512   1.904       .  S
O509        C514   1.264       .  A
O510        V512   1.903       .  S
O510        C513   1.263       .  A
V511        V512   2.088       .  T
O517        V525   1.909       .  S
O517        C527   1.265       .  A
O518        V525   1.907   1_565  S
O518        C528   1.265       .  A
O519        V525   1.897   1_565  S
O519        C529   1.261       .  A
O520        V525   1.896       .  S
O520        C530   1.263       .  A
O521        V526   1.905       .  S
O521        C530   1.264       .  A
O522        V526   1.896   1_565  S
O522        C529   1.263       .  A
O523        V526   1.904   1_565  S
O523        C528   1.264       .  A
O524        V526   1.904       .  S
O524        C527   1.265       .  A
V525        V526   2.089       .  T
O531        V539   1.908       .  S
O531        C541   1.265       .  A
O532        V539   1.906   1_565  S
O532        C542   1.264       .  A
O533        V539   1.902   1_565  S
O533        C543   1.264       .  A
O534        V539   1.909       .  S
O534        C544   1.265   1_455  A
O535        V540   1.907       .  S
O535        C544   1.265   1_455  A
O536        V540   1.901   1_565  S
O536        C543   1.263       .  A
O537        V540   1.904       .  S
O537        C542   1.265   1_545  A
O538        V540   1.908       .  S
O538        C541   1.265       .  A
V539        V540   2.087       .  T
O545        V553   1.904   1_554  S
O545        C555   1.263       .  A
O546        V553   1.901   1_565  S
O546        C556   1.263       .  A
O547        V553   1.910       .  S
O547        C557   1.265       .  A
O548        V553   1.907   1_564  S
O548        C558   1.265       .  A
O549        V554   1.897   1_564  S
O549        C558   1.262       .  A
O550        V554   1.901       .  S
O550        C557   1.264       .  A
O551        V554   1.909   1_565  S
O551        C556   1.265       .  A
O552        V554   1.905   1_554  S
O552        C555   1.265       .  A
V553        V554   2.089       .  T
O559        V567   1.902   1_554  S
O559        C569   1.263   1_455  A
O560        V567   1.895       .  S
O560        C570   1.260       .  A
O561        V567   1.897       .  S
O561        C571   1.260   1_455  A
O562        V567   1.900   1_554  S
O562        C572   1.262       .  A
O563        V568   1.907   1_554  S
O563        C572   1.265       .  A
O564        V568   1.904       .  S
O564        C571   1.265   1_455  A
O565        V568   1.899       .  S
O565        C570   1.262       .  A
O566        V568   1.900   1_554  S
O566        C569   1.263   1_455  A
V567        V568   2.089       .  T
O573        V581   1.898   1_554  S
O573        C583   1.262       .  A
O574        V581   1.896   1_565  S
O574        C584   1.261       .  A
O575        V581   1.915   1_564  S
O575        C585   1.267       .  A
O576        V581   1.910       .  S
O576        C586   1.267       .  A
O577        V582   1.903       .  S
O577        C586   1.262       .  A
O578        V582   1.903   1_564  S
O578        C585   1.264       .  A
O579        V582   1.907   1_565  S
O579        C584   1.266       .  A
O580        V582   1.908   1_554  S
O580        C583   1.266       .  A
V581        V582   2.088       .  T
O587        V595   1.910   1_554  S
O587        C597   1.266       .  A
O588        V595   1.907       .  S
O588        C598   1.265       .  A
O589        V595   1.908       .  S
O589        C599   1.264       .  A
O590        V595   1.907   1_554  S
O590        C600   1.265       .  A
O591        V596   1.905   1_554  S
O591        C600   1.263       .  A
O592        V596   1.896       .  S
O592        C599   1.262       .  A
O593        V596   1.898       .  S
O593        C598   1.260       .  A
O594        V596   1.898   1_554  S
O594        C597   1.261       .  A
V595        V596   2.084       .  T
C601        C602   1.410       .  A
C601        C606   1.400       .  A
C601        H608   1.082       .  S
C602        C603   1.435       .  A
C603        C604   1.404       .  A
C603       Br610   1.929       .  S
C604        C605   1.394       .  A
C604        H609   1.084       .  S
C605        C606   1.401       .  A
C606       Br607   1.904       .  S
C611        C612   1.401       .  A
C611        C616   1.390       .  A
C611        H618   1.083       .  S
C612        C613   1.406       .  A
C613        C614   1.402       .  A
C613       Br620   1.917       .  S
C614        C615   1.409       .  A
C614        H619   1.083       .  S
C615        C616   1.413       .  A
C616       Br617   1.923       .  S
C621        C622   1.399       .  A
C621        C626   1.398       .  A
C621        H628   1.083       .  S
C622        C623   1.413       .  A
C623        C624   1.398       .  A
C623       Br630   1.922       .  S
C624        C625   1.405       .  A
C624        H629   1.083       .  S
C625        C626   1.420       .  A
C626       Br627   1.919   1_554  S
C631        C632   1.413       .  A
C631        C636   1.396       .  A
C631        H638   1.083       .  S
C632        C633   1.416       .  A
C633        C634   1.400       .  A
C633       Br640   1.921       .  S
C634        C635   1.399       .  A
C634        H639   1.078       .  S
C635        C636   1.402       .  A
C636       Br637   1.921       .  S
C641        C642   1.396       .  A
C641        C646   1.399       .  A
C641        H648   1.084       .  S
C642        C643   1.407       .  A
C643        C644   1.400       .  A
C643       Br650   1.919       .  S
C644        C645   1.411       .  A
C644        H649   1.082       .  S
C645        C646   1.416       .  A
C646       Br647   1.894       .  S
C651        C652   1.403       .  A
C651        C656   1.396       .  A
C651        H658   1.084   1_554  S
C652        C653   1.410       .  A
C653        C654   1.395       .  A
C653       Br660   1.922       .  S
C654        C655   1.406       .  A
C654        H659   1.084       .  S
C655        C656   1.412       .  A
C656       Br657   1.920   1_554  S
C661        C662   1.399       .  A
C661        C666   1.397       .  A
C661        H668   1.083       .  S
C662        C663   1.405       .  A
C663        C664   1.392       .  A
C663       Br670   1.922       .  S
C664        C665   1.407       .  A
C664        H669   1.081       .  S
C665        C666   1.414       .  A
C666       Br667   1.914       .  S
C671        C672   1.402       .  A
C671        C676   1.406       .  A
C671        H678   1.083       .  S
C672        C673   1.410       .  A
C673        C674   1.393       .  A
C673       Br680   1.924       .  S
C674        C675   1.407       .  A
C674        H679   1.083       .  S
C675        C676   1.418       .  A
C676       Br677   1.920   1_554  S
C681        C682   1.401       .  A
C681        C686   1.383       .  A
C681        H688   1.083       .  S
C682        C683   1.404       .  A
C683        C684   1.405       .  A
C683       Br690   1.899   1_655  S
C684        C685   1.407       .  A
C684        H689   1.083   1_655  S
C685        C686   1.412       .  A
C686       Br687   1.923       .  S
C691        C692   1.411       .  A
C691        C696   1.390       .  A
C691        H698   1.083       .  S
C692        C693   1.413       .  A
C693        C694   1.399       .  A
C693       Br700   1.905       .  S
C694        C695   1.398       .  A
C694        H699   1.082       .  S
C695        C696   1.403       .  A
C696       Br697   1.921       .  S
C701        C702   1.404       .  A
C701        C706   1.399       .  A
C701        H708   1.084   1_655  S
C702        C703   1.415       .  A
C703        C704   1.394       .  A
C703       Br710   1.924       .  S
C704        C705   1.402       .  A
C704        H709   1.081       .  S
C705        C706   1.401       .  A
C706       Br707   1.890   1_655  S
C711        C712   1.403       .  A
C711        C716   1.397       .  A
C711        H718   1.083       .  S
C712        C713   1.412       .  A
C713        C714   1.396       .  A
C713       Br720   1.922       .  S
C714        C715   1.405       .  A
C714        H719   1.083       .  S
C715        C716   1.412       .  A
C716       Br717   1.918   1_554  S
C721        C722   1.408       .  A
C721        C726   1.390       .  A
C721        H728   1.081       .  S
C722        C723   1.410   1_655  A
C723        C724   1.402   1_455  A
C723       Br730   1.900       .  S
C724        C725   1.399       .  A
C724        H729   1.083   1_655  S
C725        C726   1.403       .  A
C726       Br727   1.918       .  S
C731        C732   1.396       .  A
C731        C736   1.388       .  A
C731        H738   1.084       .  S
C732        C733   1.409       .  A
C733        C734   1.409       .  A
C733       Br740   1.913       .  S
C734        C735   1.412       .  A
C734        H739   1.082       .  S
C735        C736   1.421       .  A
C736       Br737   1.915       .  S
C741        C742   1.400       .  A
C741        C746   1.405       .  A
C741        H748   1.081       .  S
C742        C743   1.402       .  A
C743        C744   1.391       .  A
C743       Br750   1.921       .  S
C744        C745   1.411       .  A
C744        H749   1.080       .  S
C745        C746   1.417       .  A
C746       Br747   1.914   1_565  S
C751        C752   1.406       .  A
C751        C756   1.402       .  A
C751        H758   1.073   1_655  S
C752        C753   1.418       .  A
C753        C754   1.387       .  A
C753       Br760   1.918       .  S
C754        C755   1.395       .  A
C754        H759   1.085       .  S
C755        C756   1.402       .  A
C756       Br757   1.918   1_655  S
C761        C762   1.399       .  A
C761        C766   1.397       .  A
C761        H768   1.078       .  S
C762        C763   1.402       .  A
C763        C764   1.399       .  A
C763       Br770   1.914       .  S
C764        C765   1.411       .  A
C764        H769   1.081   1_565  S
C765        C766   1.416       .  A
C766       Br767   1.923       .  S
C771        C772   1.395       .  A
C771        C776   1.399       .  A
C771        H778   1.085       .  S
C772        C773   1.408       .  A
C773        C774   1.405       .  A
C773       Br780   1.916   1_554  S
C774        C775   1.412       .  A
C774        H779   1.082       .  S
C775        C776   1.431       .  A
C776       Br777   1.925       .  S
C781        C782   1.399       .  A
C781        C786   1.402       .  A
C781        H788   1.083       .  S
C782        C783   1.416       .  A
C783        C784   1.400       .  A
C783       Br790   1.916   1_565  S
C784        C785   1.401       .  A
C784        H789   1.082       .  S
C785        C786   1.417       .  A
C786       Br787   1.907       .  S
C791        C792   1.397       .  A
C791        C796   1.399       .  A
C791        H798   1.083       .  S
C792        C793   1.400       .  A
C793        C794   1.393       .  A
C793       Br800   1.898       .  S
C794        C795   1.405       .  A
C794        H799   1.082       .  S
C795        C796   1.419       .  A
C796       Br797   1.912   1_554  S
C801        C802   1.403       .  A
C801        C806   1.396       .  A
C801        H808   1.085       .  S
C802        C803   1.399       .  A
C803        C804   1.389       .  A
C803       Br810   1.920       .  S
C804        C805   1.408       .  A
C804        H809   1.080       .  S
C805        C806   1.414       .  A
C806       Br807   1.921       .  S
C811        C812   1.404       .  A
C811        C816   1.395       .  A
C811        H818   1.083       .  S
C812        C813   1.421       .  A
C813        C814   1.395       .  A
C813       Br820   1.927       .  S
C814        C815   1.398       .  A
C814        H819   1.083       .  S
C815        C816   1.410       .  A
C816       Br817   1.917       .  S
C821        C822   1.397       .  A
C821        C826   1.400       .  A
C821        H828   1.084       .  S
C822        C823   1.410       .  A
C823        C824   1.397       .  A
C823       Br830   1.921       .  S
C824        C825   1.407       .  A
C824        H829   1.083       .  S
C825        C826   1.414       .  A
C826       Br827   1.897       .  S
C831        C832   1.409       .  A
C831        C836   1.395       .  A
C831        H838   1.083       .  S
C832        C833   1.414       .  A
C833        C834   1.397       .  A
C833       Br840   1.920       .  S
C834        C835   1.404       .  A
C834        H839   1.084       .  S
C835        C836   1.406       .  A
C836       Br837   1.923       .  S
C841        C842   1.408       .  A
C841        C846   1.392       .  A
C841        H848   1.084       .  S
C842        C843   1.413       .  A
C843        C844   1.407       .  A
C843       Br850   1.919       .  S
C844        C845   1.401       .  A
C844        H849   1.075       .  S
C845        C846   1.406       .  A
C846       Br847   1.921       .  S
C851        C852   1.410       .  A
C851        C856   1.388       .  A
C851        H858   1.081       .  S
C852        C853   1.420   1_655  A
C853        C854   1.409       .  A
C853       Br860   1.916       .  S
C854        C855   1.403   1_455  A
C854        H859   1.083       .  S
C855        C856   1.400       .  A
C856       Br857   1.915       .  S
C861        C862   1.404       .  A
C861        C866   1.409       .  A
C861        H868   1.083       .  S
C862        C863   1.399       .  A
C863        C864   1.386       .  A
C863       Br870   1.914       .  S
C864        C865   1.411       .  A
C864        H869   1.080       .  S
C865        C866   1.423       .  A
C866       Br867   1.920   1_565  S
C871        C872   1.410       .  A
C871        C876   1.414       .  A
C871        H878   1.079       .  S
C872        C873   1.410       .  A
C873        C874   1.390       .  A
C873       Br880   1.911       .  S
C874        C875   1.404       .  A
C874        H879   1.081       .  S
C875        C876   1.416       .  A
C876       Br877   1.919       .  S
C881        C882   1.398       .  A
C881        C886   1.387       .  A
C881        H888   1.077       .  S
C882        C883   1.415   1_655  A
C883        C884   1.413       .  A
C883       Br890   1.914       .  S
C884        C885   1.409   1_455  A
C884        H889   1.082       .  S
C885        C886   1.409       .  A
C886       Br887   1.910       .  S
C891        C892   1.415       .  A
C891        C896   1.400       .  A
C891        H898   1.080       .  S
C892        C893   1.433       .  A
C893        C894   1.401       .  A
C893       Br900   1.919       .  S
C894        C895   1.393       .  A
C894        H899   1.085       .  S
C895        C896   1.396       .  A
C896       Br897   1.899   1_565  S
C901        C902   1.405       .  A
C901        C906   1.395       .  A
C901        H908   1.082       .  S
C902        C903   1.417       .  A
C903        C904   1.398       .  A
C903       Br910   1.913       .  S
C904        C905   1.401       .  A
C904        H909   1.083       .  S
C905        C906   1.409       .  A
C906       Br907   1.907       .  S
C911        C912   1.404       .  A
C911        C916   1.399       .  A
C911        H918   1.083       .  S
C912        C913   1.411       .  A
C913        C914   1.392       .  A
C913       Br920   1.909       .  S
C914        C915   1.402       .  A
C914        H919   1.082       .  S
C915        C916   1.417       .  A
C916       Br917   1.922       .  S
C921        C922   1.406       .  A
C921        C926   1.407       .  A
C921        H928   1.083       .  S
C922        C923   1.411       .  A
C923        C924   1.391       .  A
C923       Br930   1.925       .  S
C924        C925   1.406       .  A
C924        H929   1.082       .  S
C925        C926   1.418       .  A
C926       Br927   1.921   1_565  S
C931        C932   1.402       .  A
C931        C936   1.395       .  A
C931        H938   1.073       .  S
C932        C933   1.413       .  A
C933        C934   1.399       .  A
C933       Br940   1.920       .  S
C934        C935   1.407       .  A
C934        H939   1.084       .  S
C935        C936   1.409       .  A
C936       Br937   1.922       .  S
C941        C942   1.407       .  A
C941        C946   1.392       .  A
C941        H948   1.083       .  S
C942        C943   1.415       .  A
C943        C944   1.406       .  A
C943       Br950   1.918       .  S
C944        C945   1.405       .  A
C944        H949   1.083       .  S
C945        C946   1.409       .  A
C946       Br947   1.924       .  S
C951        C952   1.395       .  A
C951        C956   1.393       .  A
C951        H958   1.084       .  S
C952        C953   1.409       .  A
C953        C954   1.404       .  A
C953       Br960   1.917       .  S
C954        C955   1.411       .  A
C954        H959   1.082       .  S
C955        C956   1.426       .  A
C956       Br957   1.920       .  S
C961        C962   1.398       .  A
C961        C966   1.403       .  A
C961        H968   1.083       .  S
C962        C963   1.410       .  A
C963        C964   1.389       .  A
C963       Br970   1.923       .  S
C964        C965   1.404       .  A
C964        H969   1.083       .  S
C965        C966   1.419       .  A
C966       Br967   1.907       .  S
C971        C972   1.410       .  A
C971        C976   1.401       .  A
C971        H978   1.081       .  S
C972        C973   1.428       .  A
C973        C974   1.402       .  A
C973       Br980   1.929       .  S
C974        C975   1.396       .  A
C974        H979   1.084       .  S
C975        C976   1.399       .  A
C976       Br977   1.903       .  S
C981        C982   1.399       .  A
C981        C986   1.391       .  A
C981        H988   1.083       .  S
C982        C983   1.410       .  A
C983        C984   1.408       .  A
C983       Br990   1.907       .  S
C984        C985   1.406       .  A
C984        H989   1.083       .  S
C985        C986   1.414       .  A
C986       Br987   1.915       .  S
C991        C992   1.403       .  A
C991        C996   1.406       .  A
C991        H998   1.084       .  S
C992        C993   1.413       .  A
C993        C994   1.396       .  A
C993      Br1000   1.907       .  S
C994        C995   1.400       .  A
C994        H999   1.084       .  S
C995        C996   1.413       .  A
C996       Br997   1.904       .  S
C1001      C1002   1.396       .  A
C1001      C1006   1.402       .  A
C1001      H1008   1.083       .  S
C1002      C1003   1.399       .  A
C1003      C1004   1.388       .  A
C1003     Br1010   1.918       .  S
C1004      C1005   1.412       .  A
C1004      H1009   1.079       .  S
C1005      C1006   1.414       .  A
C1006     Br1007   1.892       .  S
C1011      C1012   1.397       .  A
C1011      C1016   1.383       .  A
C1011      H1018   1.074       .  S
C1012      C1013   1.412       .  A
C1013      C1014   1.413       .  A
C1013     Br1020   1.916       .  S
C1014      C1015   1.412       .  A
C1014      H1019   1.080       .  S
C1015      C1016   1.411       .  A
C1016     Br1017   1.916       .  S
C1021      C1022   1.405       .  A
C1021      C1026   1.401   1_655  A
C1021      H1028   1.083   1_655  S
C1022      C1023   1.417       .  A
C1023      C1024   1.396       .  A
C1023     Br1030   1.915       .  S
C1024      C1025   1.401       .  A
C1024      H1029   1.083       .  S
C1025      C1026   1.416   1_655  A
C1026     Br1027   1.920       .  S
C1031      C1032   1.404       .  A
C1031      C1036   1.400       .  A
C1031      H1038   1.084       .  S
C1032      C1033   1.406       .  A
C1033      C1034   1.391       .  A
C1033     Br1040   1.922       .  S
C1034      C1035   1.403       .  A
C1034      H1039   1.077       .  S
C1035      C1036   1.415       .  A
C1036     Br1037   1.920       .  S
C1041      C1042   1.405       .  A
C1041      C1046   1.393       .  A
C1041      H1048   1.084       .  S
C1042      C1043   1.411   1_655  A
C1043      C1044   1.395       .  A
C1043     Br1050   1.920       .  S
C1044      C1045   1.404   1_455  A
C1044      H1049   1.084       .  S
C1045      C1046   1.410       .  A
C1046     Br1047   1.921       .  S
C1051      C1052   1.402       .  A
C1051      C1056   1.404       .  A
C1051      H1058   1.083       .  S
C1052      C1053   1.402       .  A
C1053      C1054   1.402       .  A
C1053     Br1060   1.900       .  S
C1054      C1055   1.407       .  A
C1054      H1059   1.082       .  S
C1055      C1056   1.421       .  A
C1056     Br1057   1.923       .  S
C1061      C1062   1.413       .  A
C1061      C1066   1.402       .  A
C1061      H1068   1.082       .  S
C1062      C1063   1.419       .  A
C1063      C1064   1.407       .  A
C1063     Br1070   1.905       .  S
C1064      C1065   1.401       .  A
C1064      H1069   1.082       .  S
C1065      C1066   1.410       .  A
C1066     Br1067   1.921       .  S
C1071      C1072   1.402       .  A
C1071      C1076   1.396       .  A
C1071      H1078   1.079       .  S
C1072      C1073   1.415       .  A
C1073      C1074   1.399       .  A
C1073     Br1080   1.920       .  S
C1074      C1075   1.403       .  A
C1074      H1079   1.083       .  S
C1075      C1076   1.411       .  A
C1076     Br1077   1.920       .  S
