geometry optimzed in LAMMPS
_audit_creation_date              2020-11-30 
_audit_creation_method            'lammps2cif' 
_symmetry_space_group_name_H-M    'P1' 
_symmetry_Int_Tables_number       1 
_symmetry_cell_setting            triclinic 
loop_ 
_symmetry_equiv_pos_as_xyz 
  x,y,z 
_cell_length_a                    24.77887878 
_cell_length_b                    48.74591026227263 
_cell_length_c                    23.142540837463113 
_cell_angle_alpha                 90.88034766712845 
_cell_angle_beta                  90.6340270736147 
_cell_angle_gamma                 90.74697602105985 
loop_ 
_atom_site_label 
_atom_site_type_symbol 
_atom_site_fract_x 
_atom_site_fract_y 
_atom_site_fract_z 
_atom_site_charge 
O1          O  0.44270290  0.20664507  0.08856117    -0.80700
O2          O  0.55096784  0.20753647  0.43198470    -0.80700
O3          O  0.38030842  0.23904093  0.44108770    -0.80700
O4          O  0.61663181  0.23173571  0.05831676    -0.80600
O5          O  0.44049838  0.20725783  0.42702302    -0.80800
O6          O  0.55192223  0.20518143  0.09216060    -0.80700
O7          O  0.61200307  0.23930794  0.44885871    -0.80700
O8          O  0.38156351  0.23497467  0.05888938    -0.80700
C9          C  0.39515093  0.21517474  0.09044331     1.09000
C10         C  0.59823507  0.21635283  0.42508103     1.08900
C11         C  0.39345317  0.21598252  0.41878283     1.09000
C12         C  0.60083689  0.21236446  0.09110927     1.08900
O13         O  0.55751001  0.26121467  0.12718146    -0.80700
O14         O  0.44448276  0.26129544  0.37750725    -0.80700
O15         O  0.43630207  0.28514165  0.03465461    -0.80700
O16         O  0.55257551  0.29214767  0.45632621    -0.80700
O17         O  0.55150502  0.26300362  0.38446015    -0.80700
O18         O  0.44817344  0.26458618  0.11783496    -0.80700
O19         O  0.56906438  0.28612064  0.05084608    -0.80600
O20         O  0.44201154  0.29168892  0.44655998    -0.80700
Co21       Co  0.49981521  0.23438351  0.09938236     1.51500
Co22       Co  0.49682704  0.23502692  0.41488393     1.51700
Co23       Co  0.41693842  0.26447046  0.50217261     1.51600
Co24       Co  0.58071113  0.25555995  0.99668351     1.51500
O25         O  0.50281338  0.24019547  0.01043148    -1.42600
C26         C  0.57530498  0.28279409  0.10397299     1.06800
C27         C  0.43528164  0.28555375  0.39427528     1.09000
C28         C  0.43251553  0.28517378  0.08936195     1.09000
C29         C  0.56101251  0.28706924  0.40429562     1.09000
O30         O  0.44267685  0.46326211  0.06246484    -0.80700
O31         O  0.48185394  0.06382602  0.43965447    -0.80700
O32         O  0.42267770  0.02607955  0.07893357    -0.80700
O33         O  0.39961154  0.47828353  0.43149909    -0.80600
O34         O  0.47502786  0.06160372  0.05600963    -0.80800
O35         O  0.45480676  0.44581621  0.45451530    -0.80700
O36         O  0.41710131  0.03311967  0.42488380    -0.80700
O37         O  0.46725588  0.48279117  0.14569613    -0.80700
C38         C  0.44041700  0.46433021  0.11824507     1.09000
C39         C  0.43437688  0.05747542  0.42149663     1.08900
C40         C  0.43227124  0.05183306  0.07894138     1.09000
C41         C  0.40984177  0.45313863  0.43444768     1.08900
O42         O  0.56164925  0.46819076  0.45481966    -0.80700
O43         O  0.58120052  0.03509239  0.05227541    -0.80700
O44         O  0.55646318  0.47249466  0.08446829    -0.80700
O45         O  0.52014066  0.02989302  0.36910653    -0.80700
O46         O  0.58233307  0.03249566  0.43616279    -0.80700
O47         O  0.53153940  0.43548988  0.03473903    -0.80700
O48         O  0.50649601  0.47214912  0.38030271    -0.80600
O49         O  0.52761565  0.03021763  0.12393415    -0.80700
Co50       Co  0.50860068  0.46923012  0.00791373     1.51500
Co51       Co  0.52658092  0.04722898  0.99636966     1.51700
Co52       Co  0.48542986  0.00129514  0.07828151     1.51600
Co53       Co  0.46722683  0.00355988  0.40690241     1.51500
O54         O  0.49251075  0.00974542  0.99253923    -1.42600
C55         C  0.54962496  0.46264398  0.40265334     1.08900
C56         C  0.57065302  0.04027549  0.10399846     1.09000
C57         C  0.55949413  0.44629317  0.07493141     1.09000
C58         C  0.56692290  0.03782761  0.38603060     1.09000
O59         O  0.87822976  0.26109587  0.06976393    -0.80700
O60         O  0.08131011  0.28145330  0.44278814    -0.80700
O61         O  0.05125023  0.29495423  0.07444058    -0.80700
O62         O  0.95032301  0.29704798  0.43646477    -0.80600
O63         O  0.10847661  0.26506884  0.04409502    -0.80800
O64         O  0.88374657  0.26707381  0.45127792    -0.80700
O65         O  0.03231925  0.28140599  0.36177842    -0.80700
O66         O  0.94040254  0.29311593  0.08853392    -0.80700
C67         C  0.89208693  0.28443082  0.09140474     1.09000
C68         C  0.07581493  0.28775152  0.38877819     1.08900
C69         C  0.09941914  0.28744323  0.06943823     1.09000
C70         C  0.90026063  0.29064464  0.43491603     1.08900
O71         O  0.94172017  0.21429208  0.44621291    -0.80700
O72         O  0.05843753  0.21345523  0.03271573    -0.80700
O73         O  0.94717711  0.23931567  0.13436213    -0.80700
O74         O  0.04985328  0.23195138  0.40897432    -0.80700
O75         O  0.12378014  0.23236975  0.46489497    -0.80700
O76         O  0.93562471  0.20911540  0.06474264    -0.80700
O77         O  0.94590339  0.24522148  0.38091593    -0.80600
O78         O  0.05520719  0.23743459  0.11455282    -0.80700
Co79       Co  0.91142814  0.23641354  0.00917002     1.51500
Co80       Co  0.06051616  0.24735631  0.49363759     1.51700
Co81       Co  0.99832316  0.26606024  0.09708341     1.51600
Co82       Co  0.00149605  0.26628413  0.42952400     1.51500
O83         O  0.98477943  0.25401817  0.01253847    -1.42600
C84         C  0.92954748  0.22175517  0.39631759     1.08900
C85         C  0.06935446  0.21601113  0.08618351     1.09000
C86         C  0.92926357  0.21614523  0.11652584     1.09000
C87         C  0.09870725  0.22414470  0.42000218     1.09000
C88         C  0.29282337  0.15724099  0.30325862     0.44900
H89         H  0.29089610  0.15648397  0.35107705    -0.04100
C90         C  0.29573144  0.15713213  0.19150565     0.45000
H91         H  0.29834731  0.15632965  0.14384288    -0.04100
C92         C  0.33274410  0.17883769  0.28072038    -0.17800
C93         C  0.31170761  0.12999500  0.27697871    -0.17500
C94         C  0.23857733  0.16387075  0.27402270    -0.17900
C95         C  0.33399672  0.17885213  0.22072463    -0.17900
C96         C  0.31327072  0.12984922  0.21772562    -0.17500
C97         C  0.23885014  0.16313803  0.21436514    -0.17800
C98         C  0.69844584  0.15694900  0.20211091     0.44900
H99         H  0.70059218  0.15655574  0.15428550    -0.04100
C100        C  0.69539389  0.15611728  0.31455107     0.45000
H101        H  0.69476878  0.15490152  0.36236294    -0.04100
C102        C  0.65879051  0.17801368  0.22830761    -0.17800
C103        C  0.68037850  0.12922209  0.22553004    -0.17500
C104        C  0.75267517  0.16366489  0.23133367    -0.17900
C105        C  0.65734430  0.17781667  0.28888124    -0.17900
C106        C  0.67787564  0.12890231  0.28456060    -0.17500
C107        C  0.75132351  0.16327881  0.29045964    -0.17800
C108        C  0.32285430  0.34617398  0.19131830     0.44900
H109        H  0.32572626  0.34921246  0.14410580    -0.04100
C110        C  0.31405126  0.33914498  0.30200874     0.45000
H111        H  0.31014669  0.33581456  0.34909042    -0.04100
C112        C  0.36094999  0.32399813  0.21459726    -0.17800
C113        C  0.33624000  0.37221956  0.22776809    -0.17500
C114        C  0.26591420  0.33711766  0.21029960    -0.17900
C115        C  0.35643091  0.32063992  0.27322665    -0.17900
C116        C  0.32971380  0.36863078  0.28638207    -0.17500
C117        C  0.26116377  0.33323625  0.26885035    -0.17800
C118        C  0.67807150  0.34749185  0.31701012     0.44900
H119        H  0.67439658  0.34895573  0.36471792    -0.04100
C120        C  0.68537491  0.34412664  0.20528905     0.45000
H121        H  0.68981238  0.34308522  0.15770623    -0.04100
C122        C  0.64329367  0.32408719  0.28911003    -0.17800
C123        C  0.66035389  0.37376632  0.28607689    -0.17500
C124        C  0.73595709  0.34145943  0.29614486    -0.17900
C125        C  0.64624549  0.32262602  0.23008238    -0.17900
C126        C  0.66507629  0.37185717  0.22712829    -0.17500
C127        C  0.73917756  0.33971868  0.23672606    -0.17800
C128        C  0.23131438  0.29938277  0.14786300    -0.13900
C129        C  0.22612419  0.32636996  0.16791526     0.08300
C130        C  0.18198487  0.34196593  0.15000046    -0.13900
C131        C  0.14057000  0.32969794  0.11655351    -0.13900
C132        C  0.14447321  0.30213473  0.09877247     0.08300
C133        C  0.19109156  0.28741595  0.11314472    -0.13900
H134        H  0.26563715  0.28727136  0.16083444     0.12300
H135        H  0.17842893  0.36313624  0.16416823     0.12300
H136        H  0.10528360  0.34148840  0.10553308     0.12300
H137        H  0.19529009  0.26612140  0.10004545     0.12300
C138        C  0.11508149  0.32062913  0.31641148    -0.13900
C139        C  0.12205798  0.30074403  0.35895297     0.08300
C140        C  0.17456106  0.29184939  0.37159912    -0.13900
C141        C  0.21896224  0.30199172  0.34138815    -0.13900
C142        C  0.21240878  0.32191709  0.29873809     0.08300
C143        C  0.16000154  0.33162767  0.28773052    -0.13900
H144        H  0.07513452  0.32806365  0.30630365     0.12300
H145        H  0.18113404  0.27629421  0.40376947     0.12300
H146        H  0.25855324  0.29400806  0.35117040     0.12300
H147        H  0.15366698  0.34815850  0.25808748     0.12300
C148        C  0.14504974  0.21850067  0.32814102    -0.13900
C149        C  0.12681910  0.20681273  0.37921268     0.08300
C150        C  0.14379192  0.18068375  0.39513842    -0.13900
C151        C  0.17866280  0.16612082  0.35949793    -0.13900
C152        C  0.19769382  0.17797910  0.30871297     0.08300
C153        C  0.18157646  0.20450463  0.29392921    -0.13900
H154        H  0.13350478  0.23908152  0.31658208     0.12300
H155        H  0.13106737  0.17193413  0.43560831     0.12300
H156        H  0.19189260  0.14596926  0.37215808     0.12300
H157        H  0.19777923  0.21448945  0.25626534     0.12300
C158        C  0.15899485  0.19409324  0.08910348    -0.13900
C159        C  0.10762091  0.19682888  0.11298598     0.08300
C160        C  0.09664168  0.18391645  0.16529102    -0.13900
C161        C  0.13763943  0.16998335  0.19481144    -0.13900
C162        C  0.19166111  0.17095857  0.17557926     0.08300
C163        C  0.20043245  0.18142361  0.11992938    -0.13900
H164        H  0.16823264  0.20347627  0.04815289     0.12300
H165        H  0.05680758  0.18510855  0.18386289     0.12300
H166        H  0.12734616  0.15987819  0.23452044     0.12300
H167        H  0.23932919  0.18109811  0.10032802     0.12300
C168        C  0.87689705  0.17334109  0.13947672    -0.13900
C169        C  0.88911528  0.20120697  0.15070308     0.08300
C170        C  0.85524450  0.21644752  0.18672226    -0.13900
C171        C  0.80885937  0.20454005  0.20895382    -0.13900
C172        C  0.79768649  0.17655829  0.19981452     0.08300
C173        C  0.83181145  0.16093265  0.16484810    -0.13900
H174        H  0.90181562  0.16135164  0.11069958     0.12300
H175        H  0.86300292  0.23804351  0.19521771     0.12300
H176        H  0.78189063  0.21714692  0.23409758     0.12300
H177        H  0.82354173  0.13929696  0.15728965     0.12300
C178        C  0.83414611  0.21859559  0.36429442    -0.13900
C179        C  0.88560188  0.20690284  0.36573511     0.08300
C180        C  0.89145684  0.17941792  0.34835748    -0.13900
C181        C  0.84680737  0.16430812  0.32705253    -0.13900
C182        C  0.79537097  0.17610140  0.32568486     0.08300
C183        C  0.78927043  0.20314922  0.34568346    -0.13900
H184        H  0.82829918  0.23957457  0.37846229     0.12300
H185        H  0.93057157  0.16981578  0.35073838     0.12300
H186        H  0.85247469  0.14369161  0.31030196     0.12300
H187        H  0.75044700  0.21299460  0.34280923     0.12300
C188        C  0.80480242  0.30397452  0.41824067    -0.13900
C189        C  0.85985127  0.30859246  0.40732924     0.08300
C190        C  0.87416154  0.32683961  0.36345542    -0.13900
C191        C  0.83405930  0.33864619  0.32872057    -0.13900
C192        C  0.77910770  0.33218565  0.33686476     0.08300
C193        C  0.76504875  0.31552990  0.38345157    -0.13900
H194        H  0.79238270  0.29014111  0.45194614     0.12300
H195        H  0.91622070  0.33079010  0.35394146     0.12300
H196        H  0.84614213  0.35231298  0.29476734     0.12300
H197        H  0.72331449  0.31009938  0.39131599     0.12300
C198        C  0.86145334  0.32720618  0.14345851    -0.13900
C199        C  0.85284862  0.29954614  0.12715583     0.08300
C200        C  0.80807205  0.28537964  0.14935692    -0.13900
C201        C  0.77365645  0.29819860  0.18816888    -0.13900
C202        C  0.78212013  0.32571453  0.20435520     0.08300
C203        C  0.82548098  0.34039202  0.18078915    -0.13900
H204        H  0.89547097  0.33866523  0.12680452     0.12300
H205        H  0.79990041  0.26416679  0.13738938     0.12300
H206        H  0.73932265  0.28681599  0.20440526     0.12300
H207        H  0.83113073  0.36201465  0.19085701     0.12300
C208        C  0.59483388  0.10090734  0.29991643    -0.13900
C209        C  0.64907582  0.10662936  0.31450876     0.08300
C210        C  0.67723633  0.08864884  0.34996023    -0.13900
C211        C  0.65144905  0.06505420  0.37029781    -0.13900
C212        C  0.59733770  0.05901870  0.35486160     0.08300
C213        C  0.56948283  0.07708877  0.31903387    -0.13900
H214        H  0.57260122  0.11459816  0.27224055     0.12300
H215        H  0.71929321  0.09257634  0.36080183     0.12300
H216        H  0.67347170  0.05173633  0.39894331     0.12300
H217        H  0.52741304  0.07344857  0.30782279     0.12300
C218        C  0.64454509  0.05718824  0.17103477    -0.13900
C219        C  0.60078998  0.06252202  0.13426406     0.08300
C220        C  0.58784085  0.08984794  0.12230891    -0.13900
C221        C  0.61639317  0.11160046  0.14893541    -0.13900
C222        C  0.65851253  0.10640725  0.18800561     0.08300
C223        C  0.67339708  0.07900799  0.19754768    -0.13900
H224        H  0.65598020  0.03625743  0.17958649     0.12300
H225        H  0.55499435  0.09439065  0.09289427     0.12300
H226        H  0.60382140  0.13243792  0.14121394     0.12300
H227        H  0.70599134  0.07453075  0.22734594     0.12300
C228        C  0.35764221  0.06201379  0.14965247    -0.13900
C229        C  0.39733667  0.07117539  0.11107780     0.08300
C230        C  0.40791534  0.09950348  0.10766895    -0.13900
C231        C  0.38064675  0.11813402  0.14251469    -0.13900
C232        C  0.34180000  0.10911341  0.18178185     0.08300
C233        C  0.33009749  0.08087564  0.18480794    -0.13900
H234        H  0.34886006  0.04031284  0.15366478     0.12300
H235        H  0.43835427  0.10738154  0.07883014     0.12300
H236        H  0.39086897  0.13970912  0.13940321     0.12300
H237        H  0.29966262  0.07345850  0.21411630     0.12300
C238        C  0.42534778  0.10131535  0.36702221    -0.13900
C239        C  0.40156144  0.07734945  0.38888620     0.08300
C240        C  0.34766984  0.07084823  0.37334030    -0.13900
C241        C  0.31852307  0.08771696  0.33624835    -0.13900
C242        C  0.34296060  0.11111493  0.31340909     0.08300
C243        C  0.39627307  0.11801245  0.32952534    -0.13900
H244        H  0.46686367  0.10674633  0.37753677     0.12300
H245        H  0.32821426  0.05247910  0.38925625     0.12300
H246        H  0.27702761  0.08248315  0.32519937     0.12300
H247        H  0.41541600  0.13631980  0.31288112     0.12300
C248        C  0.65544938  0.42013547  0.18987652    -0.13900
C249        C  0.64356431  0.39186604  0.18584029     0.08300
C250        C  0.60746200  0.38210305  0.14341258    -0.13900
C251        C  0.58299692  0.39992741  0.10582315    -0.13900
C252        C  0.59276733  0.42829198  0.11062381     0.08300
C253        C  0.62957606  0.43839881  0.15266850    -0.13900
H254        H  0.68326378  0.42802957  0.22269499     0.12300
H255        H  0.59580742  0.36073222  0.14107004     0.12300
H256        H  0.55411527  0.39140955  0.07474235     0.12300
H257        H  0.63739014  0.46022828  0.15745375     0.12300
C258        C  0.63104236  0.43248602  0.39116796    -0.13900
C259        C  0.58061447  0.44150277  0.37074519     0.08300
C260        C  0.55634663  0.42757169  0.32344850    -0.13900
C261        C  0.58158539  0.40525642  0.29724697    -0.13900
C262        C  0.63263024  0.39673992  0.31640159     0.08300
C263        C  0.65687137  0.41032874  0.36408843    -0.13900
H264        H  0.65021203  0.44237305  0.42840293     0.12300
H265        H  0.51670517  0.43323234  0.30804610     0.12300
H266        H  0.56088957  0.39450049  0.26204181     0.12300
H267        H  0.69587184  0.40389919  0.38009801     0.12300
C268        C  0.34194357  0.43873476  0.35918548    -0.13900
C269        C  0.37418427  0.43230337  0.40722859     0.08300
C270        C  0.38105375  0.40476204  0.42162563    -0.13900
C271        C  0.36244763  0.38408180  0.38436881    -0.13900
C272        C  0.33739632  0.39038692  0.33175423     0.08300
C273        C  0.32304243  0.41778920  0.32192083    -0.13900
H274        H  0.33536519  0.45991691  0.34764106     0.12300
H275        H  0.40450224  0.39931034  0.45939831     0.12300
H276        H  0.37139289  0.36298829  0.39562075     0.12300
H277        H  0.30070994  0.42318867  0.28338262     0.12300
C278        C  0.42991770  0.43307003  0.20123546    -0.13900
C279        C  0.40942011  0.44315526  0.14912336     0.08300
C280        C  0.36419786  0.43008187  0.12321926    -0.13900
C281        C  0.33961823  0.40745964  0.14944307    -0.13900
C282        C  0.36055427  0.39716037  0.20130875     0.08300
C283        C  0.40658305  0.40995714  0.22631847    -0.13900
H284        H  0.46586603  0.44218528  0.22085613     0.12300
H285        H  0.34834873  0.43715002  0.08233788     0.12300
H286        H  0.30458321  0.39784089  0.12891022     0.12300
H287        H  0.42510479  0.40183255  0.26492799     0.12300
C288        C  0.38608339  0.29960634  0.30631626    -0.17000
C289        C  0.41285162  0.30613492  0.35523728    -0.32100
H290        H  0.38418840  0.27833404  0.29114937     0.12100
H291        H  0.41538732  0.32760687  0.36952829     0.12600
C292        C  0.39741227  0.30645095  0.17861046    -0.17000
C293        C  0.40369966  0.30753011  0.12062971    -0.32100
H294        H  0.41889649  0.29057195  0.20129659     0.12100
H295        H  0.38422900  0.32322608  0.09549008     0.12600
C296        C  0.61458321  0.30283441  0.32266582    -0.17000
C297        C  0.58606721  0.30878781  0.36961107    -0.32100
H298        H  0.61740089  0.28156450  0.30848153     0.12100
H299        H  0.58403808  0.32989731  0.38514739     0.12600
C300        C  0.61401232  0.30214905  0.19470064    -0.17000
C301        C  0.60739365  0.30341665  0.13721794    -0.32100
H302        H  0.59281543  0.28583922  0.21667147     0.12100
H303        H  0.62661610  0.31946558  0.11276080     0.12600
C304        C  0.62197359  0.19504801  0.32807865    -0.17000
C305        C  0.63523931  0.20154143  0.38443568    -0.32100
H306        H  0.58386415  0.20215880  0.31068562     0.12100
H307        H  0.67508509  0.19682976  0.40098381     0.12600
C308        C  0.62396541  0.19439223  0.18860601    -0.17000
C309        C  0.63869703  0.20015725  0.13340610    -0.32100
H310        H  0.58436239  0.20035051  0.20355386     0.12100
H311        H  0.67994377  0.19714024  0.11970658     0.12600
C312        C  0.35583797  0.20122968  0.37753838    -0.17000
C313        C  0.36898135  0.19535052  0.32158403    -0.32100
H314        H  0.31528737  0.19695685  0.39242922     0.12100
H315        H  0.40779216  0.20238084  0.30580137     0.12600
C316        C  0.35679088  0.20341609  0.13160040    -0.17000
C317        C  0.37179162  0.19505945  0.18475563    -0.32100
H318        H  0.31493865  0.20272428  0.11880480     0.12100
H319        H  0.41285723  0.19856353  0.20017005     0.12600
O320        O  0.43637971  0.20708600  0.57108345    -0.80700
O321        O  0.52635578  0.20524190  0.90927865    -0.80700
O322        O  0.40321044  0.21207513  0.95363892    -0.80700
O323        O  0.60908910  0.23744426  0.56681978    -0.80600
O324        O  0.43993593  0.22046200  0.87260569    -0.80800
O325        O  0.54637482  0.20597467  0.57678233    -0.80700
O326        O  0.60215175  0.22606256  0.93737290    -0.80700
O327        O  0.37733130  0.23927309  0.55870296    -0.80700
C328        C  0.38933172  0.21573184  0.57793264     1.09000
C329        C  0.57710588  0.20687242  0.90923991     1.08900
C330        C  0.40507458  0.20779269  0.89901137     1.09000
C331        C  0.59417484  0.21414153  0.58548894     1.08900
O332        O  0.54748357  0.25926445  0.63586008    -0.80700
O333        O  0.43450660  0.27001002  0.90361140    -0.80700
O334        O  0.44010504  0.29148732  0.56095153    -0.80700
O335        O  0.56069060  0.28350855  0.93685769    -0.80700
O336        O  0.53723020  0.25589527  0.86764656    -0.80700
O337        O  0.43930660  0.26121612  0.62878884    -0.80700
O338        O  0.55192019  0.29026830  0.57014477    -0.80600
O339        O  0.36245493  0.26355321  0.95860122    -0.80700
Co340      Co  0.49248531  0.23378960  0.59385277     1.51500
Co341      Co  0.48914301  0.23955831  0.92253693     1.51700
Co342      Co  0.42558904  0.24930073  0.99296743     1.51600
Co343      Co  0.57440195  0.26389769  0.51007686     1.51500
O344        O  0.49507502  0.24765554  0.50524142    -1.42600
C345        C  0.55832254  0.28375226  0.62193160     1.06800
C346        C  0.38442501  0.27463480  0.91547556     1.09000
C347        C  0.43140930  0.28563618  0.61245978     1.09000
C348        C  0.55620866  0.27834648  0.88334457     1.09000
O349        O  0.43542243  0.46141622  0.56442414    -0.80700
O350        O  0.47526928  0.06519459  0.93891893    -0.80700
O351        O  0.42632585  0.02303407  0.57402142    -0.80700
O352        O  0.40564945  0.47916338  0.93468527    -0.80600
O353        O  0.48034710  0.05847391  0.55525911    -0.80800
O354        O  0.46261151  0.44709723  0.95372514    -0.80700
O355        O  0.41187904  0.03362441  0.92631921    -0.80700
O356        O  0.46156409  0.48125757  0.64665714    -0.80700
C357        C  0.43439895  0.46260474  0.62032327     1.09000
C358        C  0.42852067  0.05790062  0.91999504     1.08900
C359        C  0.43596941  0.04871891  0.57450287     1.09000
C360        C  0.41653561  0.45404199  0.93635469     1.08900
O361        O  0.56869077  0.46994207  0.95295656    -0.80700
O362        O  0.58525011  0.02994174  0.54998499    -0.80700
O363        O  0.55040691  0.47142291  0.58384438    -0.80700
O364        O  0.51517535  0.03092374  0.87040678    -0.80700
O365        O  0.57701092  0.03514052  0.93767064    -0.80700
O366        O  0.52453359  0.43384101  0.53654480    -0.80700
O367        O  0.51163545  0.47416972  0.87990917    -0.80600
O368        O  0.53120862  0.02623898  0.62116134    -0.80700
Co369      Co  0.50087815  0.46755453  0.50920005     1.51500
Co370      Co  0.53214564  0.04422348  0.49543805     1.51700
Co371      Co  0.48810061  0.99798654  0.57463956     1.51600
Co372      Co  0.46326147  0.00453758  0.90964162     1.51500
O373        O  0.49662161  0.00718135  0.48968284    -1.42600
C374        C  0.55557004  0.46485853  0.90082257     1.08900
C375        C  0.57485167  0.03559773  0.60135659     1.09000
C376        C  0.55485317  0.44528833  0.57401274     1.09000
C377        C  0.56171264  0.03939703  0.88697300     1.09000
O378        O  0.87590617  0.26275116  0.56476144    -0.80700
O379        O  0.07026278  0.28330730  0.94010879    -0.80700
O380        O  0.04715901  0.29869883  0.57533001    -0.80700
O381        O  0.94831260  0.29233042  0.93348614    -0.80600
O382        O  0.10678333  0.26832905  0.55026265    -0.80800
O383        O  0.88040904  0.26416743  0.95410007    -0.80700
O384        O  0.02663634  0.27496580  0.85745869    -0.80700
O385        O  0.93520613  0.29601624  0.58320322    -0.80700
C386        C  0.88765359  0.28638451  0.58597993     1.09000
C387        C  0.06555593  0.28661089  0.88485956     1.08900
C388        C  0.09589686  0.29156174  0.57188243     1.09000
C389        C  0.89793530  0.28684974  0.93385086     1.08900
O390        O  0.93502811  0.21045901  0.94918565    -0.80700
O391        O  0.05260925  0.21570369  0.54506467    -0.80700
O392        O  0.94216229  0.24241512  0.63236052    -0.80700
O393        O  0.04649163  0.22651310  0.90663773    -0.80700
O394        O  0.12289543  0.23626000  0.95209880    -0.80700
O395        O  0.93574020  0.21189301  0.56243030    -0.80700
O396        O  0.94033831  0.24014932  0.88154239    -0.80600
O397        O  0.05134452  0.24346083  0.62083143    -0.80700
Co398      Co  0.91343507  0.23907726  0.50592082     1.51500
Co399      Co  0.05925911  0.24722635  0.98685168     1.51700
Co400      Co  0.99385068  0.27009523  0.59737753     1.51600
Co401      Co  0.99805874  0.26088444  0.92697066     1.51500
O402        O  0.98587225  0.25740530  0.51285108    -1.42600
C403        C  0.92264010  0.21737011  0.89900812     1.08900
C404        C  0.06565365  0.22098306  0.59706095     1.09000
C405        C  0.92602559  0.21895545  0.61365745     1.09000
C406        C  0.09828215  0.22368788  0.91179516     1.09000
C407        C  0.29196886  0.15182908  0.79089684     0.44900
H408        H  0.29129463  0.15007540  0.83844113    -0.04100
C409        C  0.28880344  0.15341378  0.67909178     0.45000
H410        H  0.28674450  0.15361730  0.63115984    -0.04100
C411        C  0.33139069  0.17331204  0.76651749    -0.17800
C412        C  0.30839148  0.12500098  0.76234582    -0.17500
C413        C  0.23655527  0.15919578  0.76660009    -0.17900
C414        C  0.32928474  0.17451046  0.70625060    -0.17900
C415        C  0.30728456  0.12559600  0.70303227    -0.17500
C416        C  0.23451147  0.15990698  0.70745801    -0.17800
C417        C  0.69491946  0.15530786  0.69262718     0.44900
H418        H  0.69766262  0.15499091  0.64485033    -0.04100
C419        C  0.69048373  0.15451128  0.80496318     0.45000
H420        H  0.69102675  0.15351002  0.85267594    -0.04100
C421        C  0.65298239  0.17545102  0.71774100    -0.17800
C422        C  0.67915427  0.12711544  0.71691823    -0.17500
C423        C  0.74812398  0.16363963  0.72285011    -0.17900
C424        C  0.65059708  0.17494829  0.77795844    -0.17900
C425        C  0.67562537  0.12706176  0.77595772    -0.17500
C426        C  0.74597270  0.16271933  0.78186185    -0.17800
C427        C  0.31948834  0.34535742  0.70377699     0.44900
H428        H  0.32660403  0.34693567  0.65673353    -0.04100
C429        C  0.30073182  0.34160690  0.81370347     0.45000
H430        H  0.29288563  0.34027419  0.86065973    -0.04100
C431        C  0.35289789  0.32293547  0.73353859    -0.17800
C432        C  0.33202575  0.37209523  0.73805695    -0.17500
C433        C  0.26053592  0.33815620  0.71759575    -0.17900
C434        C  0.34323978  0.32135507  0.79161469    -0.17900
C435        C  0.32153232  0.36998954  0.79623321    -0.17500
C436        C  0.25060240  0.33580240  0.77578585    -0.17800
C437        C  0.68250578  0.35165207  0.81848288     0.44900
H438        H  0.68337784  0.35586758  0.86583746    -0.04100
C439        C  0.67983384  0.34215601  0.70808355     0.45000
H440        H  0.68048546  0.33737073  0.66111874    -0.04100
C441        C  0.64247419  0.32874338  0.80028230    -0.17800
C442        C  0.66489423  0.37649476  0.78308086    -0.17500
C443        C  0.73718928  0.34216360  0.79494011    -0.17900
C444        C  0.64055333  0.32345404  0.74134247    -0.17900
C445        C  0.66480765  0.37178941  0.72416725    -0.17500
C446        C  0.73531011  0.33774355  0.73616120    -0.17800
C447        C  0.23370016  0.31101993  0.63016976    -0.13900
C448        C  0.22085370  0.33116327  0.67136980     0.08300
C449        C  0.16841434  0.34169771  0.67251242    -0.13900
C450        C  0.12796619  0.33023452  0.63671173    -0.13900
C451        C  0.13968480  0.30820244  0.59923076     0.08300
C452        C  0.19342948  0.29956141  0.59449510    -0.13900
H453        H  0.27396231  0.30265682  0.62858286     0.12300
H454        H  0.15806901  0.35749829  0.70373242     0.12300
H455        H  0.08700298  0.33737590  0.64114610     0.12300
H456        H  0.20382639  0.28275453  0.56572630     0.12300
C457        C  0.13375385  0.32490979  0.87850074    -0.13900
C458        C  0.10770515  0.30177288  0.85369614     0.08300
C459        C  0.12782870  0.29032996  0.80245100    -0.13900
C460        C  0.17408714  0.30128455  0.77728356    -0.13900
C461        C  0.19971995  0.32483032  0.80106742     0.08300
C462        C  0.17897823  0.33657273  0.85192281    -0.13900
H463        H  0.11960166  0.33366766  0.91878404     0.12300
H464        H  0.10974406  0.27181421  0.78382038     0.12300
H465        H  0.19065752  0.29073714  0.74018005     0.12300
H466        H  0.19838929  0.35446357  0.87167900     0.12300
C467        C  0.18614648  0.21189798  0.87147159    -0.13900
C468        C  0.13047648  0.20643269  0.87297228     0.08300
C469        C  0.10850657  0.18503215  0.83838455    -0.13900
C470        C  0.14265980  0.16894482  0.80391756    -0.13900
C471        C  0.19859978  0.17436538  0.80397533     0.08300
C472        C  0.21952518  0.19614376  0.83759761    -0.13900
H473        H  0.20429124  0.22871320  0.89630887     0.12300
H474        H  0.06556783  0.18062554  0.83854799     0.12300
H475        H  0.12569518  0.15245777  0.77730296     0.12300
H476        H  0.26179848  0.20165317  0.83671928     0.12300
C477        C  0.14357013  0.21749851  0.66410082    -0.13900
C478        C  0.10654532  0.20424083  0.62633690     0.08300
C479        C  0.11347498  0.17630290  0.61262594    -0.13900
C480        C  0.15583553  0.16171772  0.63807884    -0.13900
C481        C  0.19214807  0.17512483  0.67629545     0.08300
C482        C  0.18645310  0.20323698  0.68781656    -0.13900
H483        H  0.14042258  0.23921844  0.67398379     0.12300
H484        H  0.08609588  0.16582233  0.58263169     0.12300
H485        H  0.15997047  0.14003484  0.62852370     0.12300
H486        H  0.21485300  0.21407090  0.71615424     0.12300
C487        C  0.86960244  0.17645122  0.62829826    -0.13900
C488        C  0.88475863  0.20334239  0.64560408     0.08300
C489        C  0.85323657  0.21717484  0.68644407    -0.13900
C490        C  0.80708537  0.20474814  0.70841676    -0.13900
C491        C  0.79293166  0.17764009  0.69262948     0.08300
C492        C  0.82419754  0.16359888  0.65208171    -0.13900
H493        H  0.89243930  0.16554465  0.59582401     0.12300
H494        H  0.86275495  0.23813197  0.69947865     0.12300
H495        H  0.78265157  0.21622036  0.73857231     0.12300
H496        H  0.81378299  0.14270607  0.63934845     0.12300
C497        C  0.82519606  0.21168890  0.87757118    -0.13900
C498        C  0.87820410  0.20271071  0.86916185     0.08300
C499        C  0.88695915  0.17831610  0.83818482    -0.13900
C500        C  0.84320861  0.16391356  0.81303354    -0.13900
C501        C  0.79031103  0.17357542  0.81948276     0.08300
C502        C  0.78150650  0.19709627  0.85336800    -0.13900
H503        H  0.81744743  0.23007085  0.90271540     0.12300
H504        H  0.92750102  0.17073265  0.83270910     0.12300
H505        H  0.85066399  0.14587371  0.78656117     0.12300
H506        H  0.74117324  0.20508564  0.85813788     0.12300
C507        C  0.80306911  0.30100838  0.91402646    -0.13900
C508        C  0.85847747  0.30491922  0.90439965     0.08300
C509        C  0.87431865  0.32327612  0.86110832    -0.13900
C510        C  0.83539426  0.33621228  0.82641496    -0.13900
C511        C  0.77995304  0.33103268  0.83429254     0.08300
C512        C  0.76458853  0.31386292  0.87962496    -0.13900
H513        H  0.78925155  0.28706821  0.94691026     0.12300
H514        H  0.91669337  0.32669521  0.85235836     0.12300
H515        H  0.84872096  0.34994604  0.79309878     0.12300
H516        H  0.72264068  0.30922967  0.88711793     0.12300
C517        C  0.85572254  0.32782095  0.64051879    -0.13900
C518        C  0.84766136  0.30045374  0.62207238     0.08300
C519        C  0.80356001  0.28542263  0.64340315    -0.13900
C520        C  0.76888213  0.29729739  0.68317777    -0.13900
C521        C  0.77724831  0.32446085  0.70178670     0.08300
C522        C  0.82007112  0.33989671  0.67947779    -0.13900
H523        H  0.88936782  0.33984182  0.62471849     0.12300
H524        H  0.79637018  0.26426116  0.63026552     0.12300
H525        H  0.73487350  0.28544636  0.69876125     0.12300
H526        H  0.82544470  0.36130301  0.69170449     0.12300
C527        C  0.59210360  0.09911650  0.79129297    -0.13900
C528        C  0.64593594  0.10535437  0.80688054     0.08300
C529        C  0.67272217  0.08897642  0.84673859    -0.13900
C530        C  0.64628486  0.06625534  0.86999152    -0.13900
C531        C  0.59266601  0.05961008  0.85364203     0.08300
C532        C  0.56597281  0.07618163  0.81373413    -0.13900
H533        H  0.57078662  0.11172313  0.76062612     0.12300
H534        H  0.71429032  0.09345401  0.85886159     0.12300
H535        H  0.66742918  0.05413815  0.90165341     0.12300
H536        H  0.52428503  0.07205569  0.80159208     0.12300
C537        C  0.64437450  0.05396155  0.67144892    -0.13900
C538        C  0.60442962  0.05841692  0.62966109     0.08300
C539        C  0.59511404  0.08520807  0.61068636    -0.13900
C540        C  0.62243381  0.10756576  0.63622106    -0.13900
C541        C  0.66028738  0.10340603  0.68043852     0.08300
C542        C  0.67291551  0.07631450  0.69588834    -0.13900
H543        H  0.65324030  0.03335254  0.68521680     0.12300
H544        H  0.56564781  0.08892699  0.57692871     0.12300
H545        H  0.61187002  0.12812248  0.62353390     0.12300
H546        H  0.70286171  0.07258792  0.72917426     0.12300
C547        C  0.35860987  0.05832988  0.64086301    -0.13900
C548        C  0.39797960  0.06779995  0.60236801     0.08300
C549        C  0.40419260  0.09616635  0.59442307    -0.13900
C550        C  0.37323978  0.11471226  0.62573663    -0.13900
C551        C  0.33565840  0.10537331  0.66608710     0.08300
C552        C  0.32780659  0.07701083  0.67265936    -0.13900
H553        H  0.35304050  0.03657632  0.64799538     0.12300
H554        H  0.43407267  0.10411329  0.56500446     0.12300
H555        H  0.38039038  0.13643714  0.61995787     0.12300
H556        H  0.29852015  0.06935423  0.70301721     0.12300
C557        C  0.42188571  0.09823161  0.85451381    -0.13900
C558        C  0.39680369  0.07605787  0.88208894     0.08300
C559        C  0.34296638  0.06919082  0.86710674    -0.13900
C560        C  0.31482970  0.08424303  0.82579195    -0.13900
C561        C  0.34038273  0.10594487  0.79766034     0.08300
C562        C  0.39396084  0.11295277  0.81253347    -0.13900
H563        H  0.46339556  0.10386893  0.86453410     0.12300
H564        H  0.32258259  0.05212343  0.88733963     0.12300
H565        H  0.27290199  0.07923888  0.81637412     0.12300
H566        H  0.41375138  0.13026111  0.79250397     0.12300
C567        C  0.65145937  0.42049986  0.68894331    -0.13900
C568        C  0.64695184  0.39186637  0.67972161     0.08300
C569        C  0.62195939  0.38229198  0.62846375    -0.13900
C570        C  0.59563111  0.40017844  0.59205104    -0.13900
C571        C  0.59346318  0.42825816  0.60576007     0.08300
C572        C  0.62370664  0.43856212  0.65303103    -0.13900
H573        H  0.67398299  0.42891313  0.72552489     0.12300
H574        H  0.61994592  0.36086668  0.61694414     0.12300
H575        H  0.57426529  0.39161978  0.55472022     0.12300
H576        H  0.62397350  0.46027691  0.66368327     0.12300
C577        C  0.63862223  0.43680185  0.88425145    -0.13900
C578        C  0.58613119  0.44422714  0.86743763     0.08300
C579        C  0.55984270  0.42909740  0.82299353    -0.13900
C580        C  0.58520196  0.40697917  0.79625653    -0.13900
C581        C  0.63815786  0.40003665  0.81194115     0.08300
C582        C  0.66446528  0.41490502  0.85657657    -0.13900
H583        H  0.65934440  0.44768396  0.91927994     0.12300
H584        H  0.51870962  0.43361091  0.81051389     0.12300
H585        H  0.56336054  0.39517796  0.76332994     0.12300
H586        H  0.70491939  0.40952158  0.87002107     0.12300
C587        C  0.34164664  0.43951154  0.86877081    -0.13900
C588        C  0.37969199  0.43289201  0.91164591     0.08300
C589        C  0.38958888  0.40518379  0.92304172    -0.13900
C590        C  0.36691673  0.38459511  0.88781185    -0.13900
C591        C  0.33411041  0.39139228  0.84059801     0.08300
C592        C  0.31875029  0.41878177  0.83346474    -0.13900
H593        H  0.33310745  0.46072070  0.85935508     0.12300
H594        H  0.41812233  0.39951517  0.95646292     0.12300
H595        H  0.37864098  0.36354900  0.89464003     0.12300
H596        H  0.29235259  0.42428447  0.79800229     0.12300
C597        C  0.42352333  0.43350345  0.70714807    -0.13900
C598        C  0.40423120  0.44160570  0.65282579     0.08300
C599        C  0.36066096  0.42704896  0.62723106    -0.13900
C600        C  0.33657578  0.40496221  0.65572764    -0.13900
C601        C  0.35633888  0.39657823  0.70971637     0.08300
C602        C  0.40073601  0.41084975  0.73461073    -0.13900
H603        H  0.45813364  0.44382210  0.72699713     0.12300
H604        H  0.34561123  0.43257458  0.58491664     0.12300
H605        H  0.30273060  0.39424414  0.63526250     0.12300
H606        H  0.41870476  0.40419305  0.77476281     0.12300
C607        C  0.37315205  0.30269581  0.82981173    -0.17000
C608        C  0.35308918  0.29328915  0.87940379    -0.32100
H609        H  0.41287371  0.29623555  0.81608981     0.12100
H610        H  0.31249647  0.29832704  0.89266971     0.12600
C611        C  0.38583971  0.30218154  0.70160262    -0.17000
C612        C  0.40767281  0.30714006  0.64997442    -0.32100
H613        H  0.38968353  0.28184927  0.71964839     0.12100
H614        H  0.40492177  0.32752949  0.63209426     0.12600
C615        C  0.61479991  0.31376953  0.84670044    -0.17000
C616        C  0.57177024  0.29761793  0.83883243    -0.32100
H617        H  0.63216682  0.31557880  0.88989666     0.12100
H618        H  0.55143792  0.29577866  0.79733816     0.12600
C619        C  0.61036570  0.30034798  0.71084259    -0.17000
C620        C  0.58040041  0.30501577  0.66303672    -0.32100
H621        H  0.61552487  0.27951525  0.72575576     0.12100
H622        H  0.57527531  0.32604170  0.65010809     0.12600
C623        C  0.61594124  0.19280128  0.81533015    -0.17000
C624        C  0.60714754  0.18772169  0.87208160    -0.32100
H625        H  0.59896107  0.21112303  0.79660817     0.12100
H626        H  0.62065380  0.16909266  0.89210821     0.12600
C627        C  0.61714839  0.19187814  0.67878870    -0.17000
C628        C  0.63076634  0.19853676  0.62389597    -0.32100
H629        H  0.57843920  0.19842585  0.69527586     0.12100
H630        H  0.67123339  0.19480649  0.60855565     0.12600
C631        C  0.36864149  0.18925524  0.86482921    -0.17000
C632        C  0.36789085  0.19019293  0.80554715    -0.32100
H633        H  0.34190711  0.17608041  0.88872997     0.12100
H634        H  0.39475542  0.20454115  0.78443513     0.12600
C635        C  0.35099932  0.20027486  0.61514209    -0.17000
C636        C  0.36534659  0.19177103  0.66890095    -0.32100
H637        H  0.30975488  0.19739293  0.59974507     0.12100
H638        H  0.40537440  0.19711299  0.68534759     0.12600
O639        O  0.44525038  0.72801508  0.10938188    -0.80700
O640        O  0.54565566  0.71386857  0.41920627    -0.80700
O641        O  0.43780700  0.71305596  0.42730758    -0.80700
O642        O  0.62400801  0.73307048  0.06427124    -0.80600
O643        O  0.46786921  0.73273004  0.34715984    -0.80800
O644        O  0.55180609  0.71806278  0.10960022    -0.80700
O645        O  0.61799931  0.73813440  0.44046006    -0.80700
O646        O  0.43334610  0.70998524  0.02402666    -0.80700
C647        C  0.42536220  0.70939085  0.07752179     1.09000
C648        C  0.59603788  0.71718774  0.41642435     1.08900
C649        C  0.43736033  0.71518843  0.37172583     1.09000
C650        C  0.60199616  0.71790537  0.10197283     1.08900
O651        O  0.57324635  0.77478251  0.12117632    -0.80700
O652        O  0.46524665  0.78240539  0.39979427    -0.80700
O653        O  0.39614060  0.76554437  0.05646615    -0.80700
O654        O  0.57874887  0.79459649  0.44924791    -0.80700
O655        O  0.56188561  0.76883612  0.37317704    -0.80700
O656        O  0.46566733  0.78480854  0.10197827    -0.80700
O657        O  0.60284747  0.79051922  0.03961357    -0.80600
O658        O  0.39355609  0.76780951  0.44143996    -0.80700
Co659      Co  0.50939021  0.75137170  0.10181922     1.51500
Co660      Co  0.50270528  0.74777370  0.41492811     1.51700
Co661      Co  0.42577102  0.74043061  0.49428163     1.51600
Co662      Co  0.59842862  0.75563700  0.99613256     1.51500
O663        O  0.51513469  0.75166851  0.01175764    -1.42600
C664        C  0.60159588  0.79160444  0.09358836     1.06800
C665        C  0.41552128  0.78373813  0.40661984     1.09000
C666        C  0.41532255  0.78296175  0.09330800     1.09000
C667        C  0.58071039  0.79109743  0.39552774     1.09000
O668        O  0.44084653  0.96462286  0.06488493    -0.80700
O669        O  0.47778386  0.56313178  0.44018140    -0.80700
O670        O  0.42999653  0.52508250  0.07775562    -0.80700
O671        O  0.41015302  0.97761921  0.43115556    -0.80600
O672        O  0.48575608  0.55949896  0.05686433    -0.80800
O673        O  0.46713536  0.94586738  0.45251576    -0.80700
O674        O  0.41058262  0.53390447  0.42442023    -0.80700
O675        O  0.46255782  0.98466394  0.14835699    -0.80700
C676        C  0.43729906  0.96573828  0.12049452     1.09000
C677        C  0.43011924  0.55786784  0.42122711     1.08900
C678        C  0.44223679  0.55050599  0.07937434     1.09000
C679        C  0.42188403  0.95263075  0.43235559     1.08900
O680        O  0.57226199  0.96967294  0.45659226    -0.80700
O681        O  0.58865021  0.53056128  0.04798142    -0.80700
O682        O  0.55518028  0.97732866  0.08950718    -0.80700
O683        O  0.51287734  0.52857313  0.36837755    -0.80700
O684        O  0.57537144  0.52971998  0.43498172    -0.80700
O685        O  0.53373587  0.93877337  0.04348937    -0.80700
O686        O  0.51813988  0.97378151  0.38087532    -0.80600
O687        O  0.53626286  0.52604901  0.12078307    -0.80700
Co688      Co  0.50797442  0.97137013  0.01297958     1.51500
Co689      Co  0.53393929  0.54475883  0.99466139     1.51700
Co690      Co  0.48992979  0.49881268  0.07531470     1.51600
Co691      Co  0.45837949  0.50317039  0.40680207     1.51500
O692        O  0.49631717  0.50808777  0.99014848    -1.42600
C693        C  0.56158811  0.96488701  0.40372026     1.08900
C694        C  0.57944594  0.53557566  0.10012439     1.09000
C695        C  0.56241368  0.95130592  0.08095021     1.09000
C696        C  0.56014501  0.53572286  0.38520634     1.09000
O697        O  0.88100527  0.75995858  0.06825325    -0.80700
O698        O  0.08026095  0.77907494  0.44177069    -0.80700
O699        O  0.05586252  0.78932073  0.07124394    -0.80700
O700        O  0.95352548  0.79279648  0.43885727    -0.80600
O701        O  0.11216278  0.75798701  0.04494888    -0.80800
O702        O  0.88531432  0.76396385  0.45375863    -0.80700
O703        O  0.03164192  0.77776585  0.36037809    -0.80700
O704        O  0.94649248  0.79029541  0.08434614    -0.80700
C705        C  0.89767934  0.78304099  0.08886710     1.09000
C706        C  0.07420551  0.78532586  0.38782913     1.08900
C707        C  0.10363404  0.78103735  0.06836860     1.09000
C708        C  0.90325873  0.78716225  0.43672392     1.08900
O709        O  0.94060016  0.71047410  0.44630459    -0.80700
O710        O  0.05387088  0.70723560  0.03404859    -0.80700
O711        O  0.94687246  0.73613968  0.13170371    -0.80700
O712        O  0.05126324  0.72786517  0.40295220    -0.80700
O713        O  0.12679473  0.73004434  0.45503733    -0.80700
O714        O  0.93262601  0.70645205  0.06134674    -0.80700
O715        O  0.94541397  0.74143542  0.38103383    -0.80600
O716        O  0.05529030  0.73250644  0.11394995    -0.80700
Co717      Co  0.91215492  0.73491359  0.00657669     1.51500
Co718      Co  0.06354677  0.74334088  0.48805596     1.51700
Co719      Co  0.00084272  0.76196555  0.09496272     1.51600
Co720      Co  0.00310665  0.76174998  0.42814832     1.51500
O721        O  0.98756611  0.75037126  0.01077351    -1.42600
C722        C  0.92828282  0.71813667  0.39662298     1.08900
C723        C  0.06770835  0.71060185  0.08642863     1.09000
C724        C  0.92687828  0.71340462  0.11337934     1.09000
C725        C  0.10153683  0.72154157  0.41074473     1.09000
C726        C  0.30664194  0.66154417  0.28886982     0.44900
H727        H  0.30796747  0.66430756  0.33653032    -0.04100
C728        C  0.30137146  0.65488115  0.17723265     0.45000
H729        H  0.29949867  0.65177433  0.12962244    -0.04100
C730        C  0.34487640  0.68089754  0.25610718    -0.17800
C731        C  0.32227912  0.63276658  0.26854163    -0.17500
C732        C  0.25042906  0.66679829  0.26301221    -0.17900
C733        C  0.34085211  0.67772743  0.19705338    -0.17900
C734        C  0.32016004  0.62930298  0.20961930    -0.17500
C735        C  0.24714388  0.66296038  0.20401836    -0.17800
C736        C  0.69603340  0.65408435  0.20228081     0.44900
H737        H  0.69791421  0.65424836  0.15443521    -0.04100
C738        C  0.69305173  0.65280588  0.31479570     0.45000
H739        H  0.69248455  0.65161764  0.36262157    -0.04100
C740        C  0.65484415  0.67421397  0.22899752    -0.17800
C741        C  0.68042229  0.62580878  0.22562361    -0.17500
C742        C  0.74984450  0.66180031  0.23148665    -0.17900
C743        C  0.65327989  0.67358940  0.28898844    -0.17900
C744        C  0.67746154  0.62536617  0.28476545    -0.17500
C745        C  0.74854277  0.66109402  0.29060541    -0.17800
C746        C  0.31750346  0.84693320  0.19339488     0.44900
H747        H  0.32148167  0.84920358  0.14594254    -0.04100
C748        C  0.30797339  0.84190051  0.30431779     0.45000
H749        H  0.30253564  0.84083120  0.35153399    -0.04100
C750        C  0.35635423  0.82576830  0.21935115    -0.17800
C751        C  0.32959884  0.87375805  0.22781279    -0.17500
C752        C  0.26128465  0.83703820  0.21183404    -0.17900
C753        C  0.35265924  0.82361137  0.27882602    -0.17900
C754        C  0.32340464  0.87090106  0.28640699    -0.17500
C755        C  0.25604904  0.83439549  0.27050687    -0.17800
C756        C  0.69486087  0.85368594  0.31255431     0.44900
H757        H  0.68981350  0.85424965  0.36012913    -0.04100
C758        C  0.70726235  0.85293483  0.20140758     0.45000
H759        H  0.71447870  0.85273003  0.15425046    -0.04100
C760        C  0.65862925  0.83202829  0.28061248    -0.17800
C761        C  0.68164651  0.88119329  0.28357573    -0.17500
C762        C  0.75253025  0.84627823  0.29406662    -0.17900
C763        C  0.66430172  0.83228177  0.22175003    -0.17900
C764        C  0.68821722  0.88072363  0.22454105    -0.17500
C765        C  0.75854489  0.84588807  0.23507498    -0.17800
C766        C  0.22677230  0.79514043  0.16107391    -0.13900
C767        C  0.22400878  0.82358068  0.16983483     0.08300
C768        C  0.18460790  0.83855878  0.14060458    -0.13900
C769        C  0.14589441  0.82486778  0.10587697    -0.13900
C770        C  0.14765451  0.79622469  0.09841616     0.08300
C771        C  0.18927397  0.78158338  0.12507782    -0.13900
H772        H  0.25722783  0.78337909  0.18329269     0.12300
H773        H  0.18237221  0.86057827  0.14685018     0.12300
H774        H  0.11408757  0.83651919  0.08572559     0.12300
H775        H  0.19115732  0.75946202  0.12048884     0.12300
C776        C  0.11052849  0.81703377  0.31185827    -0.13900
C777        C  0.11897964  0.79956408  0.35864298     0.08300
C778        C  0.17205884  0.79375813  0.37584045    -0.13900
C779        C  0.21587845  0.80469817  0.34639852    -0.13900
C780        C  0.20800454  0.82241009  0.29993193     0.08300
C781        C  0.15475288  0.82883980  0.28351889    -0.13900
H782        H  0.06993223  0.82179210  0.29779398     0.12300
H783        H  0.17979515  0.77986818  0.41099373     0.12300
H784        H  0.25604486  0.79882213  0.35956778     0.12300
H785        H  0.14720137  0.84318921  0.24934724     0.12300
C786        C  0.14735013  0.71751742  0.31717536    -0.13900
C787        C  0.13103043  0.70520535  0.36850749     0.08300
C788        C  0.15343560  0.68017257  0.38479004    -0.13900
C789        C  0.19147525  0.66738835  0.34971115    -0.13900
C790        C  0.20818487  0.67976024  0.29855116     0.08300
C791        C  0.18637033  0.70511216  0.28288835    -0.13900
H792        H  0.13229786  0.73747856  0.30547295     0.12300
H793        H  0.14270288  0.67101213  0.42551411     0.12300
H794        H  0.20861165  0.64810985  0.36293277     0.12300
H795        H  0.20019996  0.71549562  0.24463013     0.12300
C796        C  0.16229962  0.69573887  0.08791440    -0.13900
C797        C  0.11013415  0.69318534  0.11038786     0.08300
C798        C  0.10195460  0.67743748  0.15965004    -0.13900
C799        C  0.14597556  0.66515065  0.18714256    -0.13900
C800        C  0.19905228  0.67004772  0.16798018     0.08300
C801        C  0.20640205  0.68457489  0.11672776    -0.13900
H802        H  0.16953940  0.70811872  0.05027789     0.12300
H803        H  0.06198920  0.67531742  0.17765683     0.12300
H804        H  0.13886143  0.65326626  0.22550039     0.12300
H805        H  0.24648019  0.68889983  0.10078139     0.12300
C806        C  0.87250292  0.67109908  0.13642754    -0.13900
C807        C  0.88605850  0.69881709  0.14780482     0.08300
C808        C  0.85344525  0.71417863  0.18503686    -0.13900
C809        C  0.80753666  0.70242527  0.20903940    -0.13900
C810        C  0.79509235  0.67456095  0.19962766     0.08300
C811        C  0.82766599  0.65892796  0.16292134    -0.13900
H812        H  0.89626783  0.65900194  0.10671794     0.12300
H813        H  0.86189740  0.73572911  0.19337539     0.12300
H814        H  0.78169253  0.71513511  0.23529496     0.12300
H815        H  0.81842423  0.63742026  0.15490725     0.12300
C816        C  0.83278800  0.71560205  0.36507882    -0.13900
C817        C  0.88390357  0.70355592  0.36624447     0.08300
C818        C  0.88896208  0.67600944  0.34889964    -0.13900
C819        C  0.84389349  0.66125031  0.32751692    -0.13900
C820        C  0.79283372  0.67345833  0.32611879     0.08300
C821        C  0.78746344  0.70049402  0.34643633    -0.13900
H822        H  0.82761221  0.73659462  0.37957070     0.12300
H823        H  0.92778603  0.66610941  0.35127187     0.12300
H824        H  0.84895737  0.64059917  0.31069328     0.12300
H825        H  0.74883115  0.71056291  0.34388334     0.12300
C826        C  0.80924701  0.80087793  0.41102377    -0.13900
C827        C  0.86514519  0.80571445  0.40710609     0.08300
C828        C  0.88370487  0.82573269  0.36862506    -0.13900
C829        C  0.84722891  0.83954819  0.33286546    -0.13900
C830        C  0.79157837  0.83370290  0.33512733     0.08300
C831        C  0.77298398  0.81474946  0.37566501    -0.13900
H832        H  0.79353329  0.78555506  0.44001907     0.12300
H833        H  0.92651839  0.82980469  0.36422324     0.12300
H834        H  0.86255280  0.85442133  0.30270419     0.12300
H835        H  0.73045444  0.80967748  0.37839910     0.12300
C836        C  0.87646163  0.82682475  0.14179478    -0.13900
C837        C  0.86202875  0.79972364  0.12553332     0.08300
C838        C  0.81576086  0.78767425  0.14930867    -0.13900
C839        C  0.78486252  0.80224736  0.18883844    -0.13900
C840        C  0.79874285  0.82936401  0.20426509     0.08300
C841        C  0.84440881  0.84172089  0.18021435    -0.13900
H842        H  0.91209789  0.83657626  0.12427950     0.12300
H843        H  0.80367636  0.76684977  0.13788378     0.12300
H844        H  0.74884539  0.79266560  0.20591726     0.12300
H845        H  0.85451406  0.86295991  0.19023949     0.12300
C846        C  0.59279487  0.59821406  0.29823039    -0.13900
C847        C  0.64690563  0.60346549  0.31428068     0.08300
C848        C  0.67314423  0.58553239  0.35148850    -0.13900
C849        C  0.64582520  0.56232727  0.37160236    -0.13900
C850        C  0.59189665  0.55670047  0.35465710     0.08300
C851        C  0.56576039  0.57487197  0.31757833    -0.13900
H852        H  0.57197537  0.61190590  0.26932543     0.12300
H853        H  0.71499377  0.58912004  0.36370108     0.12300
H854        H  0.66657845  0.54898209  0.40125535     0.12300
H855        H  0.52383319  0.57162264  0.30527516     0.12300
C856        C  0.64771808  0.55298979  0.17327398    -0.13900
C857        C  0.60962479  0.55796957  0.12974696     0.08300
C858        C  0.60001672  0.58510697  0.11323616    -0.13900
C859        C  0.62539584  0.60712717  0.14228959    -0.13900
C860        C  0.66170694  0.60239593  0.18775598     0.08300
C861        C  0.67441461  0.57506504  0.20129706    -0.13900
H862        H  0.65641377  0.53217815  0.18579703     0.12300
H863        H  0.57149795  0.58935378  0.07886974     0.12300
H864        H  0.61460401  0.62784061  0.13100708     0.12300
H865        H  0.70329032  0.57084411  0.23534446     0.12300
C866        C  0.36121355  0.56201156  0.13983029    -0.13900
C867        C  0.40915162  0.57013171  0.11239453     0.08300
C868        C  0.42788329  0.59733001  0.11960330    -0.13900
C869        C  0.39928434  0.61602098  0.15267255    -0.13900
C870        C  0.35101114  0.60816202  0.17876351     0.08300
C871        C  0.33215776  0.58102560  0.17283580    -0.13900
H872        H  0.34627043  0.54109254  0.13575011     0.12300
H873        H  0.46512893  0.60424087  0.10017883     0.12300
H874        H  0.41505131  0.63671720  0.15804809     0.12300
H875        H  0.29489093  0.57472563  0.19305510     0.12300
C876        C  0.42695243  0.60233624  0.36825480    -0.13900
C877        C  0.40033833  0.57854655  0.38738136     0.08300
C878        C  0.34737768  0.57293470  0.36723731    -0.13900
C879        C  0.32206751  0.59045185  0.32825348    -0.13900
C880        C  0.34929596  0.61376279  0.30851397     0.08300
C881        C  0.40174877  0.61965483  0.32889158    -0.13900
H882        H  0.46802975  0.60702331  0.38192927     0.12300
H883        H  0.32588914  0.55466660  0.38064371     0.12300
H884        H  0.28139047  0.58575498  0.31321955     0.12300
H885        H  0.42366226  0.63735734  0.31332386     0.12300
C886        C  0.66448777  0.92944961  0.19464889    -0.13900
C887        C  0.66455697  0.90089486  0.18374867     0.08300
C888        C  0.63712902  0.89058776  0.13457874    -0.13900
C889        C  0.60766440  0.90762213  0.09947650    -0.13900
C890        C  0.60297720  0.93557167  0.11314509     0.08300
C891        C  0.63298375  0.94668280  0.16004762    -0.13900
H892        H  0.68644610  0.93818455  0.23135031     0.12300
H893        H  0.63516623  0.86893899  0.12447308     0.12300
H894        H  0.58578175  0.89832176  0.06326573     0.12300
H895        H  0.63050323  0.96828681  0.17116746     0.12300
C896        C  0.64758267  0.93885262  0.38856615    -0.13900
C897        C  0.59466164  0.94510331  0.37094424     0.08300
C898        C  0.57053849  0.92974746  0.32546892    -0.13900
C899        C  0.59839321  0.90855706  0.29846523    -0.13900
C900        C  0.65168494  0.90283981  0.31485313     0.08300
C901        C  0.67600614  0.91791425  0.36045625    -0.13900
H902        H  0.66673477  0.95001044  0.42422396     0.12300
H903        H  0.52929201  0.93344717  0.31203072     0.12300
H904        H  0.57845722  0.89669759  0.26428437     0.12300
H905        H  0.71692876  0.91354353  0.37403875     0.12300
C906        C  0.34752888  0.93910578  0.36330126    -0.13900
C907        C  0.38700714  0.93169902  0.40408148     0.08300
C908        C  0.39896000  0.90390538  0.41112098    -0.13900
C909        C  0.37548632  0.88409084  0.37475893    -0.13900
C910        C  0.33960849  0.89167372  0.33072596     0.08300
C911        C  0.32381896  0.91912818  0.32680226    -0.13900
H912        H  0.33764333  0.96043725  0.35704126     0.12300
H913        H  0.42897941  0.89761790  0.44245222     0.12300
H914        H  0.38834361  0.86306464  0.37863867     0.12300
H915        H  0.29558913  0.92525411  0.29350414     0.12300
C916        C  0.42844922  0.93243691  0.20018183    -0.13900
C917        C  0.40635389  0.94421393  0.15052484     0.08300
C918        C  0.35918444  0.93251001  0.12567555    -0.13900
C919        C  0.33386077  0.90980558  0.15102569    -0.13900
C920        C  0.35591881  0.89809727  0.20089282     0.08300
C921        C  0.40426429  0.90927742  0.22423713    -0.13900
H922        H  0.46598913  0.94032803  0.21871416     0.12300
H923        H  0.34218985  0.94083025  0.08645077     0.12300
H924        H  0.29721148  0.90131547  0.13162425     0.12300
H925        H  0.42387529  0.89990329  0.26084692     0.12300
C926        C  0.38932430  0.80656865  0.31558872    -0.17000
C927        C  0.38177598  0.80252129  0.37270047    -0.32100
H928        H  0.42316936  0.79654008  0.29523513     0.12100
H929        H  0.34657899  0.81024563  0.39433420     0.12600
C930        C  0.39351799  0.80954690  0.18213131    -0.17000
C931        C  0.37877614  0.79997903  0.12893423    -0.32100
H932        H  0.43300282  0.80450330  0.19935779     0.12100
H933        H  0.33799174  0.80309303  0.11295692     0.12600
C934        C  0.62701935  0.81000264  0.31005876    -0.17000
C935        C  0.60562787  0.81354999  0.36223296    -0.32100
H936        H  0.62324598  0.78992402  0.28931037     0.12100
H937        H  0.60990982  0.83339467  0.38387111     0.12600
C938        C  0.62963171  0.81491069  0.18287614    -0.17000
C939        C  0.63619198  0.81150496  0.12574075    -0.32100
H940        H  0.59583918  0.80437101  0.20250379     0.12100
H941        H  0.66807098  0.82201266  0.10285893     0.12600
C942        C  0.61691134  0.69069973  0.32638504    -0.17000
C943        C  0.62978759  0.69823263  0.38155954    -0.32100
H944        H  0.57969853  0.69824347  0.30771248     0.12100
H945        H  0.66913617  0.69328677  0.39921567     0.12600
C946        C  0.62044078  0.69197363  0.19191477    -0.17000
C947        C  0.63628254  0.70056843  0.13924747    -0.32100
H948        H  0.58156368  0.69831626  0.20816600     0.12100
H949        H  0.67679463  0.69638096  0.12448686     0.12600
C950        C  0.40350595  0.69536875  0.33880105    -0.17000
C951        C  0.38399792  0.70021271  0.28578889    -0.32100
H952        H  0.39076378  0.67721923  0.36165727     0.12100
H953        H  0.39739728  0.71867563  0.26443479     0.12600
C954        C  0.38946048  0.68913414  0.10511609    -0.17000
C955        C  0.36946159  0.69608209  0.15728577    -0.32100
H956        H  0.38178038  0.66915746  0.08518184     0.12100
H957        H  0.37604391  0.71685609  0.17343276     0.12600
O958        O  0.45140738  0.73014718  0.62836223    -0.80700
O959        O  0.54009332  0.71083849  0.89241073    -0.80700
O960        O  0.36862715  0.73703561  0.94909858    -0.80700
O961        O  0.61780876  0.73525149  0.55894658    -0.80600
O962        O  0.43268334  0.71256263  0.90958245    -0.80800
O963        O  0.54645551  0.71495969  0.59513397    -0.80700
O964        O  0.61095608  0.72185550  0.94690250    -0.80700
O965        O  0.43659499  0.70876385  0.54747311    -0.80700
C966        C  0.42733066  0.71126891  0.60101211     1.09000
C967        C  0.58909201  0.70846055  0.90512135     1.08900
C968        C  0.38273405  0.71858638  0.91254191     1.09000
C969        C  0.59668036  0.71636691  0.58927562     1.08900
O970        O  0.56426745  0.76692170  0.63633435    -0.80700
O971        O  0.44846770  0.76359159  0.87982397    -0.80700
O972        O  0.39804149  0.76613960  0.55732069    -0.80700
O973        O  0.58955932  0.77990771  0.92917949    -0.80700
O974        O  0.53187216  0.76041988  0.86829284    -0.80700
O975        O  0.46758321  0.78107993  0.60943496    -0.80700
O976        O  0.58091865  0.79290435  0.56325520    -0.80600
O977        O  0.43301942  0.78515077  0.95835607    -0.80700
Co978      Co  0.50864579  0.74919953  0.58601031     1.51500
Co979      Co  0.49473207  0.73855193  0.92634652     1.51700
Co980      Co  0.43654814  0.74755456  0.99012161     1.51600
Co981      Co  0.59184957  0.76436970  0.50262502     1.51500
O982        O  0.50897462  0.75526943  0.49965924    -1.42600
C983        C  0.58448035  0.78854538  0.61665183     1.06800
C984        C  0.42916559  0.78432724  0.90435373     1.09000
C985        C  0.41821944  0.78199803  0.59648115     1.09000
C986        C  0.56692802  0.77847905  0.88008319     1.09000
O987        O  0.44265659  0.96169471  0.56129911    -0.80700
O988        O  0.48254609  0.56465731  0.94075232    -0.80700
O989        O  0.42213879  0.52301632  0.57862172    -0.80700
O990        O  0.40725592  0.97803910  0.93469125    -0.80600
O991        O  0.47728121  0.55746683  0.55588730    -0.80800
O992        O  0.46609741  0.94752770  0.95798491    -0.80700
O993        O  0.41572008  0.53480548  0.92945632    -0.80700
O994        O  0.46443317  0.98198199  0.64456847    -0.80700
C995        C  0.43905757  0.96305093  0.61701698     1.09000
C996        C  0.43430581  0.55882570  0.92439668     1.08900
C997        C  0.43376229  0.54852365  0.57870113     1.09000
C998        C  0.42069528  0.95327893  0.93671133     1.08900
O999        O  0.57010827  0.97257834  0.96013567    -0.80700
O1000       O  0.58013600  0.52725272  0.54829678    -0.80700
O1001       O  0.55590600  0.97280607  0.58646538    -0.80700
O1002       O  0.51616186  0.53019223  0.86861778    -0.80700
O1003       O  0.58113786  0.53253108  0.93294134    -0.80700
O1004       O  0.53374647  0.93493243  0.53796492    -0.80700
O1005       O  0.51532515  0.97507925  0.88475900    -0.80600
O1006       O  0.52803928  0.52491076  0.62103181    -0.80700
Co1007     Co  0.51007134  0.96837381  0.50895323     1.51500
Co1008     Co  0.52706274  0.54249187  0.49500735     1.51700
Co1009     Co  0.48277361  0.49717121  0.57568488     1.51600
Co1010     Co  0.46335046  0.50460642  0.90865537     1.51500
O1011       O  0.48819732  0.50641575  0.49010030    -1.42600
C1012       C  0.55905659  0.96666954  0.90779121     1.08900
C1013       C  0.57143879  0.53358998  0.59967232     1.09000
C1014       C  0.55994862  0.94653598  0.57862876     1.09000
C1015       C  0.56397550  0.53753199  0.88316409     1.09000
O1016       O  0.88123456  0.75973631  0.56904639    -0.80700
O1017       O  0.08058587  0.77556100  0.94084957    -0.80700
O1018       O  0.05538385  0.79182535  0.57526292    -0.80700
O1019       O  0.95385494  0.79193725  0.93774325    -0.80600
O1020       O  0.11253663  0.76130522  0.54644531    -0.80800
O1021       O  0.88448005  0.76384818  0.95319356    -0.80700
O1022       O  0.03214292  0.77556843  0.85966925    -0.80700
O1023       O  0.94441232  0.79099153  0.58908638    -0.80700
C1024       C  0.89570540  0.78284083  0.59161370     1.09000
C1025       C  0.07527785  0.78224091  0.88717313     1.08900
C1026       C  0.10335303  0.78383748  0.57157294     1.09000
C1027       C  0.90335330  0.78685120  0.93621669     1.08900
O1028       O  0.93307958  0.70929391  0.94437508    -0.80700
O1029       O  0.05755368  0.70992336  0.53386274    -0.80700
O1030       O  0.94896091  0.73679057  0.63291398    -0.80700
O1031       O  0.04520882  0.72498996  0.90316153    -0.80700
O1032       O  0.12254872  0.72559541  0.95297006    -0.80700
O1033       O  0.93903779  0.70753083  0.56151730    -0.80700
O1034       O  0.94213322  0.74060486  0.87968985    -0.80600
O1035       O  0.05771533  0.73448288  0.61481893    -0.80700
Co1036     Co  0.91555058  0.73548720  0.50741040     1.51500
Co1037     Co  0.06140482  0.74025497  0.98725375     1.51700
Co1038     Co  0.00151846  0.76346932  0.59738424     1.51600
Co1039     Co  0.00116206  0.75993574  0.92725360     1.51500
O1040       O  0.98944407  0.75243558  0.51214722    -1.42600
C1041       C  0.92263608  0.71757404  0.89444854     1.08900
C1042       C  0.07086042  0.71289726  0.58645892     1.09000
C1043       C  0.93076435  0.71401998  0.61317142     1.09000
C1044       C  0.09465431  0.71736954  0.91008129     1.09000
C1045       C  0.29224965  0.65591981  0.79837699     0.44900
H1046       H  0.28841746  0.65563475  0.84615325    -0.04100
C1047       C  0.30109696  0.65568901  0.68669191     0.45000
H1048       H  0.30355111  0.65492562  0.63902676    -0.04100
C1049       C  0.33054895  0.67845714  0.77704578    -0.17800
C1050       C  0.31468482  0.62913890  0.77354218    -0.17500
C1051       C  0.23918067  0.66090233  0.76626414    -0.17900
C1052       C  0.33662954  0.67807855  0.71752679    -0.17900
C1053       C  0.31887251  0.62881245  0.71447955    -0.17500
C1054       C  0.24313986  0.66056945  0.70717011    -0.17800
C1055       C  0.69546578  0.65295223  0.68675521     0.44900
H1056       H  0.69741657  0.65305680  0.63890371    -0.04100
C1057       C  0.69278428  0.65147571  0.79917433     0.45000
H1058       H  0.69307605  0.64957000  0.84672946    -0.04100
C1059       C  0.65298278  0.67230315  0.71329436    -0.17800
C1060       C  0.68132917  0.62452237  0.71032580    -0.17500
C1061       C  0.74862246  0.66161920  0.71657387    -0.17900
C1062       C  0.65151343  0.67143861  0.77334662    -0.17900
C1063       C  0.67892401  0.62402802  0.76938362    -0.17500
C1064       C  0.74736587  0.66092458  0.77560428    -0.17800
C1065       C  0.32013580  0.84598839  0.69689641     0.44900
H1066       H  0.32327979  0.84835369  0.64940604    -0.04100
C1067       C  0.31264441  0.84031316  0.80805119     0.45000
H1068       H  0.30864539  0.83838796  0.85542608    -0.04100
C1069       C  0.35923049  0.82472917  0.72149776    -0.17800
C1070       C  0.33293435  0.87260195  0.73144006    -0.17500
C1071       C  0.26431119  0.83613924  0.71635167    -0.17900
C1072       C  0.35643427  0.82212671  0.78064898    -0.17900
C1073       C  0.32782025  0.86952917  0.79020103    -0.17500
C1074       C  0.25986447  0.83304132  0.77507887    -0.17800
C1075       C  0.69348667  0.85416204  0.82293790     0.44900
H1076       H  0.69389510  0.85701746  0.87069516    -0.04100
C1077       C  0.69269954  0.84774666  0.71175859     0.45000
H1078       H  0.69409720  0.84555748  0.66404977    -0.04100
C1079       C  0.65381120  0.83153623  0.80132582    -0.17800
C1080       C  0.67574449  0.87992650  0.79077588    -0.17500
C1081       C  0.74861317  0.84539120  0.79842304    -0.17900
C1082       C  0.65356045  0.82792563  0.74207325    -0.17900
C1083       C  0.67613137  0.87643566  0.73188527    -0.17500
C1084       C  0.74778279  0.84211219  0.73919906    -0.17800
C1085       C  0.22459161  0.79494775  0.66800987    -0.13900
C1086       C  0.22601026  0.82353106  0.67447131     0.08300
C1087       C  0.18957171  0.83953583  0.64329294    -0.13900
C1088       C  0.14949271  0.82680756  0.60871317    -0.13900
C1089       C  0.14727555  0.79808819  0.60338091     0.08300
C1090       C  0.18585049  0.78232593  0.63228283    -0.13900
H1091       H  0.25277329  0.78241805  0.69171952     0.12300
H1092       H  0.19067366  0.86168060  0.64787329     0.12300
H1093       H  0.12008683  0.83925634  0.58665074     0.12300
H1094       H  0.18455232  0.76012923  0.62926793     0.12300
C1095       C  0.11357285  0.81437931  0.81267706    -0.13900
C1096       C  0.12102586  0.79659064  0.85908276     0.08300
C1097       C  0.17398225  0.79133964  0.87810912    -0.13900
C1098       C  0.21851277  0.80310012  0.85079140    -0.13900
C1099       C  0.21145001  0.82095638  0.80436161     0.08300
C1100       C  0.15828183  0.82689288  0.78645250    -0.13900
H1101       H  0.07327608  0.81891648  0.79731846     0.12300
H1102       H  0.18112742  0.77737896  0.91327677     0.12300
H1103       H  0.25858188  0.79769662  0.86543183     0.12300
H1104       H  0.15107229  0.84137459  0.75245053     0.12300
C1105       C  0.13944675  0.71287467  0.81762540    -0.13900
C1106       C  0.12020297  0.70024883  0.86721649     0.08300
C1107       C  0.13646402  0.67375877  0.88126535    -0.13900
C1108       C  0.17311321  0.66011269  0.84618083    -0.13900
C1109       C  0.19422781  0.67320454  0.79780083     0.08300
C1110       C  0.17717925  0.69965338  0.78370019    -0.13900
H1111       H  0.12860768  0.73378561  0.80783835     0.12300
H1112       H  0.12289695  0.66430846  0.92069971     0.12300
H1113       H  0.18688204  0.63994940  0.85810028     0.12300
H1114       H  0.19485386  0.71057054  0.74800025     0.12300
C1115       C  0.16656425  0.70003982  0.59420969    -0.13900
C1116       C  0.11285346  0.69512263  0.61015548     0.08300
C1117       C  0.10158664  0.67537800  0.65171663    -0.13900
C1118       C  0.14405369  0.66174864  0.67913559    -0.13900
C1119       C  0.19828024  0.66882283  0.66754378     0.08300
C1120       C  0.20894039  0.68720693  0.62292250    -0.13900
H1121       H  0.17595336  0.71516952  0.56191514     0.12300
H1122       H  0.06033069  0.67117823  0.66417718     0.12300
H1123       H  0.13461532  0.64708745  0.71233072     0.12300
H1124       H  0.24996599  0.69320018  0.61290673     0.12300
C1125       C  0.87586777  0.67163887  0.63113185    -0.13900
C1126       C  0.88787903  0.69938118  0.64380900     0.08300
C1127       C  0.85179847  0.71475846  0.67699631    -0.13900
C1128       C  0.80418752  0.70284692  0.69623564    -0.13900
C1129       C  0.79337054  0.67491165  0.68585908     0.08300
C1130       C  0.82912179  0.65933183  0.65289346    -0.13900
H1131       H  0.90245811  0.65962469  0.60421987     0.12300
H1132       H  0.85920227  0.73635438  0.68593676     0.12300
H1133       H  0.77631153  0.71526497  0.72068704     0.12300
H1134       H  0.82122750  0.63769888  0.64481234     0.12300
C1135       C  0.82774275  0.71507991  0.85868222    -0.13900
C1136       C  0.87929454  0.70342921  0.86090245     0.08300
C1137       C  0.88600593  0.67658322  0.83969365    -0.13900
C1138       C  0.84234395  0.66208541  0.81429275    -0.13900
C1139       C  0.79084169  0.67375535  0.81210107     0.08300
C1140       C  0.78372066  0.70021284  0.83532335    -0.13900
H1141       H  0.82128383  0.73549898  0.87612131     0.12300
H1142       H  0.92508350  0.66696733  0.84240926     0.12300
H1143       H  0.84881776  0.64193461  0.79547390     0.12300
H1144       H  0.74464886  0.70986367  0.83271091     0.12300
C1145       C  0.80967333  0.80029136  0.91239392    -0.13900
C1146       C  0.86522396  0.80558473  0.90753381     0.08300
C1147       C  0.88264614  0.82574217  0.86873990    -0.13900
C1148       C  0.84502235  0.83937073  0.83381587    -0.13900
C1149       C  0.78971935  0.83284145  0.83692842     0.08300
C1150       C  0.77271283  0.81352427  0.87732489    -0.13900
H1151       H  0.79466038  0.78488264  0.94162614     0.12300
H1152       H  0.92526085  0.83014505  0.86371322     0.12300
H1153       H  0.85915806  0.85470444  0.80410770     0.12300
H1154       H  0.73088317  0.80765311  0.88048326     0.12300
C1155       C  0.87073556  0.82497154  0.64950645    -0.13900
C1156       C  0.85693786  0.79869750  0.62729409     0.08300
C1157       C  0.80760240  0.78672224  0.64378176    -0.13900
C1158       C  0.77363206  0.80040502  0.68226045    -0.13900
C1159       C  0.78776397  0.82650413  0.70473985     0.08300
C1160       C  0.83612567  0.83886447  0.68722739    -0.13900
H1161       H  0.90829722  0.83484891  0.63760145     0.12300
H1162       H  0.79557975  0.76654212  0.62774680     0.12300
H1163       H  0.73593395  0.79066178  0.69412341     0.12300
H1164       H  0.84669284  0.85944552  0.70193235     0.12300
C1165       C  0.59476768  0.59676097  0.78615122    -0.13900
C1166       C  0.64931204  0.60219477  0.79991249     0.08300
C1167       C  0.67642614  0.58534577  0.83855044    -0.13900
C1168       C  0.64947697  0.56303827  0.86279558    -0.13900
C1169       C  0.59498357  0.55728931  0.84866072     0.08300
C1170       C  0.56802534  0.57426532  0.80967634    -0.13900
H1171       H  0.57318579  0.60978741  0.75650468     0.12300
H1172       H  0.71851452  0.58925378  0.84927000     0.12300
H1173       H  0.67091944  0.55059794  0.89364016     0.12300
H1174       H  0.52572090  0.57085894  0.79925197     0.12300
C1175       C  0.64571516  0.55182745  0.66372620    -0.13900
C1176       C  0.60238645  0.55642377  0.62610707     0.08300
C1177       C  0.59084076  0.58334541  0.60942060    -0.13900
C1178       C  0.61963608  0.60561511  0.63335332    -0.13900
C1179       C  0.66097276  0.60122951  0.67373727     0.08300
C1180       C  0.67535271  0.57411344  0.68680434    -0.13900
H1181       H  0.65616443  0.53114566  0.67561969     0.12300
H1182       H  0.55877363  0.58726524  0.57869356     0.12300
H1183       H  0.60758016  0.62624015  0.62280514     0.12300
H1184       H  0.70757187  0.57030432  0.71752096     0.12300
C1185       C  0.35999544  0.56002840  0.64930026    -0.13900
C1186       C  0.40025638  0.56844490  0.61064350     0.08300
C1187       C  0.41284342  0.59652169  0.60693009    -0.13900
C1188       C  0.38694482  0.61564062  0.64160795    -0.13900
C1189       C  0.34698664  0.60747194  0.68019964     0.08300
C1190       C  0.33348942  0.57947106  0.68390341    -0.13900
H1191       H  0.34989293  0.53848734  0.65368030     0.12300
H1192       H  0.44396968  0.60379452  0.57822129     0.12300
H1193       H  0.39942212  0.63684273  0.63930823     0.12300
H1194       H  0.30248747  0.57272017  0.71327641     0.12300
C1195       C  0.42824547  0.60041081  0.86279627    -0.13900
C1196       C  0.40238745  0.57859134  0.89081017     0.08300
C1197       C  0.34708525  0.57355481  0.87974057    -0.13900
C1198       C  0.31848403  0.58974933  0.84090139    -0.13900
C1199       C  0.34498008  0.61081065  0.81174488     0.08300
C1200       C  0.39975435  0.61631450  0.82338221    -0.13900
H1201       H  0.47086370  0.60459968  0.86982323     0.12300
H1202       H  0.32614312  0.55679748  0.90045703     0.12300
H1203       H  0.27588957  0.58573710  0.83321896     0.12300
H1204       H  0.42036018  0.63298021  0.80193561     0.12300
C1205       C  0.66704779  0.92209377  0.68358222    -0.13900
C1206       C  0.64914092  0.89496836  0.69127980     0.08300
C1207       C  0.60214885  0.88556944  0.66301286    -0.13900
C1208       C  0.57446228  0.90243434  0.62570753    -0.13900
C1209       C  0.59231983  0.92944669  0.61698435     0.08300
C1210       C  0.63839014  0.93943070  0.64673798    -0.13900
H1211       H  0.70261938  0.92980653  0.70641024     0.12300
H1212       H  0.58498013  0.86570958  0.67241496     0.12300
H1213       H  0.53774364  0.89460004  0.60518815     0.12300
H1214       H  0.65221873  0.96037773  0.64120810     0.12300
C1215       C  0.64352852  0.93870123  0.89500722    -0.13900
C1216       C  0.59154270  0.94607792  0.87614588     0.08300
C1217       C  0.56719572  0.93098072  0.83047170    -0.13900
C1218       C  0.59392025  0.90919687  0.80429847    -0.13900
C1219       C  0.64691386  0.90267223  0.82082149     0.08300
C1220       C  0.67110435  0.91725968  0.86727795    -0.13900
H1221       H  0.66265362  0.94938552  0.93129406     0.12300
H1222       H  0.52630528  0.93518923  0.81647674     0.12300
H1223       H  0.57240436  0.89710307  0.77179286     0.12300
H1224       H  0.71127664  0.91207315  0.88200549     0.12300
C1225       C  0.34581771  0.93771534  0.86941120    -0.13900
C1226       C  0.38815365  0.93145463  0.90783035     0.08300
C1227       C  0.40527390  0.90421604  0.91162828    -0.13900
C1228       C  0.38360910  0.88407814  0.87483807    -0.13900
C1229       C  0.34369357  0.89050447  0.83420583     0.08300
C1230       C  0.32360528  0.91727727  0.83278248    -0.13900
H1231       H  0.33211946  0.95860449  0.86530434     0.12300
H1232       H  0.43802703  0.89874576  0.94044718     0.12300
H1233       H  0.40119055  0.86398581  0.87517907     0.12300
H1234       H  0.29280380  0.92258956  0.80148502     0.12300
C1235       C  0.42891053  0.93214097  0.70055962    -0.13900
C1236       C  0.40831478  0.94183990  0.64814062     0.08300
C1237       C  0.36276238  0.92872451  0.62304537    -0.13900
C1238       C  0.33748060  0.90670338  0.65084215    -0.13900
C1239       C  0.35806742  0.89701021  0.70345509     0.08300
C1240       C  0.40497421  0.90958586  0.72705691    -0.13900
H1241       H  0.46533951  0.94111413  0.71954148     0.12300
H1242       H  0.34694662  0.93542443  0.58186538     0.12300
H1243       H  0.30211131  0.89708359  0.63099049     0.12300
H1244       H  0.42427223  0.90160273  0.76528171     0.12300
C1245       C  0.39103385  0.80305081  0.81436236    -0.17000
C1246       C  0.39901205  0.80513288  0.87204992    -0.32100
H1247       H  0.41037075  0.78647037  0.79098751     0.12100
H1248       H  0.38037238  0.82116226  0.89731788     0.12600
C1249       C  0.39659532  0.80892173  0.68411699    -0.17000
C1250       C  0.38255106  0.80003318  0.63045979    -0.32100
H1251       H  0.43536449  0.80316988  0.70225384     0.12100
H1252       H  0.34239396  0.80392093  0.61346445     0.12600
C1253       C  0.62575344  0.81468874  0.84479793    -0.17000
C1254       C  0.58288524  0.79807155  0.83551191    -0.32100
H1255       H  0.64293105  0.81593797  0.88808828     0.12100
H1256       H  0.56042041  0.79797962  0.79515378     0.12600
C1257       C  0.62452399  0.80580836  0.70890710    -0.17000
C1258       C  0.60992295  0.80956726  0.65368457    -0.32100
H1259       H  0.61780719  0.78594940  0.72823874     0.12100
H1260       H  0.61832903  0.82874373  0.63265261     0.12600
C1261       C  0.61408654  0.68728841  0.81121768    -0.17000
C1262       C  0.62336510  0.69100364  0.86868947    -0.32100
H1263       H  0.57903225  0.69671772  0.79175568     0.12100
H1264       H  0.66055376  0.68434488  0.88857299     0.12600
C1265       C  0.61724438  0.68939799  0.67625475    -0.17000
C1266       C  0.63160101  0.69798696  0.62309686    -0.32100
H1267       H  0.57878094  0.69579441  0.69349244     0.12100
H1268       H  0.67175775  0.69410178  0.60696209     0.12600
C1269       C  0.34469205  0.70445165  0.87144837    -0.17000
C1270       C  0.36255851  0.69603246  0.81876585    -0.32100
H1271       H  0.30289089  0.70128796  0.88353985     0.12100
H1272       H  0.40352568  0.70135116  0.80656294     0.12600
C1273       C  0.38876158  0.69286516  0.63019137    -0.17000
C1274       C  0.37557785  0.69627529  0.68645917    -0.32100
H1275       H  0.37011368  0.67696587  0.60347992     0.12100
H1276       H  0.39475919  0.71296239  0.71089016     0.12600
loop_ 
_geom_bond_atom_site_label_1 
_geom_bond_atom_site_label_2 
_geom_bond_distance 
_geom_bond_site_symmetry_2 
_ccdc_geom_bond_type 
O1            C9   1.256       .  A
O1          Co21   1.956       .  S
O2           C10   1.255       .  A
O2          Co22   1.950       .  S
O3           C11   1.277       .  A
O3          Co23   2.061       .  S
O4           C12   1.281       .  A
O4          Co24   2.056   1_554  S
O5           C11   1.260       .  A
O5          Co22   1.957       .  S
O6           C12   1.258       .  A
O6          Co21   1.941       .  S
O7           C10   1.280       .  A
O7         Co343   2.078       .  S
O8            C9   1.266       .  A
O8         Co342   2.014   1_554  S
C9          C316   1.470       .  S
C10         C305   1.504       .  S
C11         C312   1.496       .  S
C12         C309   1.485       .  S
O13          C26   1.265       .  A
O13         Co21   2.018       .  S
O14          C27   1.263       .  A
O14         Co22   2.030       .  S
O15          C28   1.271       .  A
O15        Co342   1.996   1_554  S
O16          C29   1.246       .  A
O16        Co343   1.948       .  S
O17          C29   1.271       .  A
O17         Co22   2.048       .  S
O18          C28   1.271       .  A
O18         Co21   2.007       .  S
O19          C26   1.251       .  A
O19         Co24   1.958   1_554  S
O20          C27   1.251       .  A
O20         Co23   1.963       .  S
Co21         O25   2.084       .  S
Co22        O344   2.172       .  S
Co23        O327   2.057       .  S
Co23        O334   1.955       .  S
Co23        O344   2.113       .  S
Co24        O326   2.052       .  S
Co24        O335   2.020       .  S
Co24         O25   2.091   1_556  S
O25        Co342   2.008   1_554  S
O25        Co341   2.058   1_554  S
C26         C301   1.475       .  S
C27         C289   1.471       .  S
C28         C293   1.493       .  S
C29         C297   1.473       .  S
O30          C38   1.293       .  A
O30         Co50   2.096       .  S
O31          C39   1.277       .  A
O31        Co370   2.041       .  S
O32          C40   1.275       .  A
O32         Co52   1.982       .  S
O33          C41   1.258       .  A
O33        Co691   1.978       .  S
O34          C40   1.280       .  A
O34         Co51   2.015   1_554  S
O35          C41   1.260       .  A
O35        Co369   1.981       .  S
O36          C39   1.261       .  A
O36         Co53   1.957       .  S
O37          C38   1.270       .  A
O37        Co690   1.904       .  S
C38         C279   1.477       .  S
C39         C239   1.483       .  S
C40         C229   1.485       .  S
C41         C269   1.468       .  S
O42          C55   1.265       .  A
O42        Co369   1.973       .  S
O43          C56   1.251       .  A
O43         Co51   1.965   1_554  S
O44          C57   1.296       .  A
O44        Co690   2.113       .  S
O45          C58   1.273       .  A
O45         Co53   2.037       .  S
O46          C58   1.250       .  A
O46        Co370   1.946       .  S
O47          C57   1.258       .  A
O47         Co50   1.860       .  S
O48          C55   1.278       .  A
O48        Co691   2.030       .  S
O49          C56   1.263       .  A
O49         Co52   2.022       .  S
Co50        O354   1.982   1_554  S
Co50        O361   1.969   1_554  S
Co50        O692   1.971   1_554  S
Co51        O350   2.044       .  S
Co51        O365   1.946       .  S
Co51         O54   2.003       .  S
Co52        O675   1.912   1_545  S
Co52        O682   2.115   1_545  S
Co52         O54   2.042   1_554  S
Co53        O671   1.977   1_545  S
Co53        O686   2.025   1_545  S
Co53        O373   2.046       .  S
O54        Co688   1.978   1_546  S
O54        Co372   2.054       .  S
C55         C259   1.486       .  S
C56         C219   1.472       .  S
C57         C252   1.469       .  S
C58         C212   1.473       .  S
O59          C67   1.277       .  A
O59         Co79   2.022       .  S
O60          C68   1.298       .  A
O60         Co80   2.113       .  S
O61          C69   1.259       .  A
O61         Co81   1.992   1_455  S
O62          C70   1.275       .  A
O62         Co82   1.982   1_655  S
O63          C69   1.254       .  A
O63        Co399   1.975   1_554  S
O64          C70   1.279       .  A
O64        Co398   2.015       .  S
O65          C68   1.272       .  A
O65         Co82   1.906       .  S
O66          C67   1.267       .  A
O66         Co81   1.972       .  S
C67         C199   1.480       .  S
C68         C139   1.484       .  S
C69         C132   1.472       .  S
C70         C189   1.484       .  S
O71          C84   1.251       .  A
O71        Co398   1.963       .  S
O72          C85   1.268       .  A
O72        Co399   1.972   1_554  S
O73          C86   1.270       .  A
O73         Co81   2.016       .  S
O74          C87   1.298       .  A
O74         Co82   2.122       .  S
O75          C87   1.262       .  A
O75         Co80   1.863       .  S
O76          C86   1.254       .  A
O76         Co79   1.960       .  S
O77          C84   1.266       .  A
O77         Co82   2.027   1_655  S
O78          C85   1.280       .  A
O78         Co81   2.038   1_455  S
Co79        O383   2.026   1_554  S
Co79        O390   1.963   1_554  S
Co79         O83   2.000       .  S
Co80        O382   1.993       .  S
Co80        O391   1.972       .  S
Co80        O402   1.973   1_455  S
Co81         O83   2.057       .  S
Co82        O402   2.023   1_455  S
O83        Co399   1.976   1_654  S
O83        Co401   2.043   1_554  S
C84         C179   1.469       .  S
C85         C159   1.479       .  S
C86         C169   1.470       .  S
C87         C149   1.448       .  S
C88          H89   1.109       .  S
C88          C94   1.538       .  S
C88          C93   1.533       .  S
C88          C92   1.536       .  S
C90          H91   1.106       .  S
C90          C96   1.536       .  S
C90          C95   1.554       .  S
C90          C97   1.541       .  S
C92          C95   1.389       .  D
C92         C313   1.512       .  S
C93         C242   1.478       .  S
C93          C96   1.372       .  D
C94         C152   1.471       .  S
C94          C97   1.381       .  D
C95         C317   1.487       .  S
C96         C232   1.490       .  S
C97         C162   1.522       .  S
C98          H99   1.109       .  S
C98         C104   1.527       .  S
C98         C103   1.527       .  S
C98         C102   1.552       .  S
C100        H101   1.109       .  S
C100        C106   1.543       .  S
C100        C105   1.547       .  S
C100        C107   1.537       .  S
C102        C105   1.403       .  D
C102        C308   1.500       .  S
C103        C222   1.493       .  S
C103        C106   1.369       .  D
C104        C172   1.478       .  S
C104        C107   1.370       .  D
C105        C304   1.520       .  S
C106        C209   1.477       .  S
C107        C182   1.481       .  S
C108        H109   1.108       .  S
C108        C114   1.543       .  S
C108        C113   1.544       .  S
C108        C112   1.544       .  S
C110        H111   1.109       .  S
C110        C116   1.534       .  S
C110        C115   1.543       .  S
C110        C117   1.533       .  S
C112        C115   1.375       .  D
C112        C292   1.502       .  S
C113        C282   1.493       .  S
C113        C116   1.381       .  D
C114        C129   1.469       .  S
C114        C117   1.377       .  D
C115        C288   1.486       .  S
C116        C272   1.490       .  S
C117        C142   1.502       .  S
C118        H119   1.110       .  S
C118        C124   1.549       .  S
C118        C123   1.543       .  S
C118        C122   1.549       .  S
C120        H121   1.108       .  S
C120        C126   1.529       .  S
C120        C125   1.540       .  S
C120        C127   1.531       .  S
C122        C125   1.370       .  D
C122        C296   1.483       .  S
C123        C262   1.492       .  S
C123        C126   1.372       .  D
C124        C192   1.496       .  S
C124        C127   1.380       .  D
C125        C300   1.498       .  S
C126        C249   1.476       .  S
C127        C202   1.477       .  S
C128        C129   1.396       .  A
C128        C133   1.390       .  A
C128        H134   1.084       .  S
C129        C130   1.403       .  A
C130        C131   1.401       .  A
C130        H135   1.083       .  S
C131        C132   1.404       .  A
C131        H136   1.083       .  S
C132        C133   1.407       .  A
C133        H137   1.084       .  S
C138        C139   1.403       .  A
C138        C143   1.407       .  A
C138        H144   1.083       .  S
C139        C140   1.406       .  A
C140        C141   1.399       .  A
C140        H145   1.083       .  S
C141        C142   1.405       .  A
C141        H146   1.083       .  S
C142        C143   1.410       .  A
C143        H147   1.078       .  S
C148        C149   1.397       .  A
C148        C153   1.388       .  A
C148        H154   1.083       .  S
C149        C150   1.400       .  A
C150        C151   1.394       .  A
C150        H155   1.083       .  S
C151        C152   1.401       .  A
C151        H156   1.083       .  S
C152        C153   1.404       .  A
C153        H157   1.083       .  S
C158        C159   1.401       .  A
C158        C163   1.399       .  A
C158        H164   1.084       .  S
C159        C160   1.401       .  A
C160        C161   1.406       .  A
C160        H165   1.083       .  S
C161        C162   1.416       .  A
C161        H166   1.081       .  S
C162        C163   1.411       .  A
C163        H167   1.070       .  S
C168        C169   1.407       .  A
C168        C173   1.402       .  A
C168        H174   1.083       .  S
C169        C170   1.401       .  A
C170        C171   1.388       .  A
C170        H175   1.082       .  S
C171        C172   1.401       .  A
C171        H176   1.082       .  S
C172        C173   1.401       .  A
C173        H177   1.083       .  S
C178        C179   1.404       .  A
C178        C183   1.395       .  A
C178        H184   1.081       .  S
C179        C180   1.403       .  A
C180        C181   1.402       .  A
C180        H185   1.083       .  S
C181        C182   1.405       .  A
C181        H186   1.083       .  S
C182        C183   1.401       .  A
C183        H187   1.082       .  S
C188        C189   1.406       .  A
C188        C193   1.395       .  A
C188        H194   1.083       .  S
C189        C190   1.405       .  A
C190        C191   1.406       .  A
C190        H195   1.083       .  S
C191        C192   1.409       .  A
C191        H196   1.080       .  S
C192        C193   1.404       .  A
C193        H197   1.082       .  S
C198        C199   1.407       .  A
C198        C203   1.403       .  A
C198        H204   1.083       .  S
C199        C200   1.405       .  A
C200        C201   1.392       .  A
C200        H205   1.082       .  S
C201        C202   1.400       .  A
C201        H206   1.084       .  S
C202        C203   1.403       .  A
C203        H207   1.083       .  S
C208        C209   1.406       .  A
C208        C213   1.393       .  A
C208        H214   1.084       .  S
C209        C210   1.398       .  A
C210        C211   1.399       .  A
C210        H215   1.083       .  S
C211        C212   1.410       .  A
C211        H216   1.083       .  S
C212        C213   1.402       .  A
C213        H217   1.083       .  S
C218        C219   1.400       .  A
C218        C223   1.403       .  A
C218        H224   1.083       .  S
C219        C220   1.405       .  A
C220        C221   1.398       .  A
C220        H225   1.083       .  S
C221        C222   1.401       .  A
C221        H226   1.083       .  S
C222        C223   1.410       .  A
C223        H227   1.083       .  S
C228        C229   1.409       .  A
C228        C233   1.407       .  A
C228        H234   1.083       .  S
C229        C230   1.406       .  A
C230        C231   1.392       .  A
C230        H235   1.083       .  S
C231        C232   1.402       .  A
C231        H236   1.082       .  S
C232        C233   1.406       .  A
C233        H237   1.082       .  S
C238        C239   1.405       .  A
C238        C243   1.399       .  A
C238        H244   1.083       .  S
C239        C240   1.410       .  A
C240        C241   1.399       .  A
C240        H245   1.083       .  S
C241        C242   1.398       .  A
C241        H246   1.083       .  S
C242        C243   1.404       .  A
C243        H247   1.083       .  S
C248        C249   1.407       .  A
C248        C253   1.404       .  A
C248        H254   1.083       .  S
C249        C250   1.395       .  A
C250        C251   1.380       .  A
C250        H255   1.078       .  S
C251        C252   1.403       .  A
C251        H256   1.083       .  S
C252        C253   1.405       .  A
C253        H257   1.083       .  S
C258        C259   1.409       .  A
C258        C263   1.405       .  A
C258        H264   1.083       .  S
C259        C260   1.405       .  A
C260        C261   1.396       .  A
C260        H265   1.082       .  S
C261        C262   1.406       .  A
C261        H266   1.083       .  S
C262        C263   1.404       .  A
C263        H267   1.083       .  S
C268        C269   1.404       .  A
C268        C273   1.399       .  A
C268        H274   1.084       .  S
C269        C270   1.400       .  A
C270        C271   1.387       .  A
C270        H275   1.083       .  S
C271        C272   1.401       .  A
C271        H276   1.090       .  S
C272        C273   1.408       .  A
C273        H277   1.082       .  S
C278        C279   1.402       .  A
C278        C283   1.397       .  A
C278        H284   1.082       .  S
C279        C280   1.406       .  A
C280        C281   1.402       .  A
C280        H285   1.083       .  S
C281        C282   1.405       .  A
C281        H286   1.083       .  S
C282        C283   1.407       .  A
C283        H287   1.083       .  S
C288        C289   1.338       .  D
C288        H290   1.090       .  S
C289        H291   1.094       .  S
C292        C293   1.354       .  D
C292        H294   1.084       .  S
C293        H295   1.083       .  S
C296        C297   1.333       .  D
C296        H298   1.086       .  S
C297        H299   1.087       .  S
C300        C301   1.341       .  D
C300        H302   1.083       .  S
C301        H303   1.081       .  S
C304        C305   1.373       .  D
C304        H306   1.085       .  S
C305        H307   1.084       .  S
C308        C309   1.365       .  D
C308        H310   1.086       .  S
C309        H311   1.085       .  S
C312        C313   1.366       .  D
C312        H314   1.085       .  S
C313        H315   1.086       .  S
C316        C317   1.352       .  D
C316        H318   1.075       .  S
C317        H319   1.085       .  S
O320        C328   1.256       .  A
O320       Co340   1.955       .  S
O321        C329   1.259       .  A
O321       Co341   1.943       .  S
O322        C330   1.280       .  A
O322       Co342   2.083       .  S
O323        C331   1.273       .  A
O323       Co343   2.045       .  S
O324        C330   1.229       .  A
O324       Co341   1.896       .  S
O325        C331   1.258       .  A
O325       Co340   1.954       .  S
O326        C329   1.281       .  A
O327        C328   1.275       .  A
C328        C635   1.494       .  S
C329        C624   1.474       .  S
C330        C631   1.483       .  S
C331        C628   1.487       .  S
O332        C345   1.267       .  A
O332       Co340   2.058       .  S
O333        C346   1.296       .  A
O333       Co341   2.071       .  S
O334        C347   1.250       .  A
O335        C348   1.263       .  A
O336        C348   1.233       .  A
O336       Co341   1.925       .  S
O337        C347   1.271       .  A
O337       Co340   2.053       .  S
O338        C345   1.253       .  A
O338       Co343   1.969       .  S
O339        C346   1.267       .  A
O339       Co342   1.892       .  S
Co340       O344   2.170       .  S
Co343       O344   2.111       .  S
C345        C620   1.491       .  S
C346        C608   1.468       .  S
C347        C612   1.483       .  S
C348        C616   1.457       .  S
O349        C357   1.295       .  A
O349       Co369   2.097       .  S
O350        C358   1.278       .  A
O351        C359   1.271       .  A
O351       Co371   1.970   1_545  S
O352        C360   1.258       .  A
O352      Co1010   1.985       .  S
O353        C359   1.280       .  A
O353       Co370   2.020       .  S
O354        C360   1.258       .  A
O355        C358   1.259       .  A
O355       Co372   1.955       .  S
O356        C357   1.269       .  A
O356      Co1009   1.903       .  S
C357        C598   1.479       .  S
C358        C558   1.482       .  S
C359        C548   1.478       .  S
C360        C588   1.473       .  S
O361        C374   1.266       .  A
O362        C375   1.247       .  A
O362       Co370   1.955       .  S
O363        C376   1.297       .  A
O363      Co1009   2.115       .  S
O364        C377   1.273       .  A
O364       Co372   2.038       .  S
O365        C377   1.250       .  A
O366        C376   1.260       .  A
O366       Co369   1.869       .  S
O367        C374   1.278       .  A
O367      Co1010   2.027       .  S
O368        C375   1.262       .  A
O368       Co371   2.022   1_545  S
Co369      O1011   1.980       .  S
Co370       O373   2.000       .  S
Co371       O994   1.902       .  S
Co371      O1001   2.111       .  S
Co371       O373   2.036   1_565  S
Co372       O990   1.981   1_545  S
Co372      O1005   2.024   1_545  S
O373      Co1007   1.982   1_545  S
C374        C578   1.480       .  S
C375        C538   1.466       .  S
C376        C571   1.472       .  S
C377        C531   1.473       .  S
O378        C386   1.274       .  A
O378       Co398   2.015       .  S
O379        C387   1.295       .  A
O379       Co399   2.095       .  S
O380        C388   1.264       .  A
O380       Co400   1.984   1_455  S
O381        C389   1.273       .  A
O381       Co401   1.984       .  S
O382        C388   1.265       .  A
O383        C389   1.280       .  A
O384        C387   1.271       .  A
O384       Co401   1.899   1_455  S
O385        C386   1.265       .  A
O385       Co400   1.966       .  S
C386        C518   1.473       .  S
C387        C458   1.473       .  S
C388        C451   1.477       .  S
C389        C508   1.491       .  S
O390        C403   1.250       .  A
O391        C404   1.264       .  A
O392        C405   1.274       .  A
O392       Co400   2.032       .  S
O393        C406   1.297       .  A
O393       Co401   2.124   1_455  S
O394        C406   1.256       .  A
O394       Co399   1.859       .  S
O395        C405   1.256       .  A
O395       Co398   1.957       .  S
O396        C403   1.262       .  A
O396       Co401   2.017       .  S
O397        C404   1.275       .  A
O397       Co400   2.016   1_455  S
Co398       O402   1.998       .  S
Co400       O402   2.049       .  S
C403        C498   1.465       .  S
C404        C478   1.475       .  S
C405        C488   1.478       .  S
C406        C468   1.470       .  S
C407        H408   1.105       .  S
C407        C413   1.527       .  S
C407        C412   1.518       .  S
C407        C411   1.540       .  S
C409        H410   1.110       .  S
C409        C415   1.546       .  S
C409        C414   1.549       .  S
C409        C416   1.538       .  S
C411        C414   1.397       .  D
C411        C632   1.500       .  S
C412        C561   1.479       .  S
C412        C415   1.373       .  D
C413        C471   1.482       .  S
C413        C416   1.370       .  D
C414        C636   1.508       .  S
C415        C551   1.484       .  S
C416        C481   1.481       .  S
C417        H418   1.108       .  S
C417        C423   1.533       .  S
C417        C422   1.540       .  S
C417        C421   1.551       .  S
C419        H420   1.106       .  S
C419        C425   1.527       .  S
C419        C424   1.546       .  S
C419        C426   1.531       .  S
C421        C424   1.396       .  D
C421        C627   1.505       .  S
C422        C541   1.488       .  S
C422        C425   1.370       .  D
C423        C491   1.483       .  S
C423        C426   1.369       .  D
C424        C623   1.502       .  S
C425        C528   1.479       .  S
C426        C501   1.481       .  S
C427        H428   1.108       .  S
C427        C433   1.536       .  S
C427        C432   1.542       .  S
C427        C431   1.545       .  S
C429        H430   1.109       .  S
C429        C435   1.532       .  S
C429        C434   1.539       .  S
C429        C436   1.534       .  S
C431        C434   1.371       .  D
C431        C611   1.499       .  S
C432        C601   1.494       .  S
C432        C435   1.379       .  D
C433        C448   1.478       .  S
C433        C436   1.378       .  D
C434        C607   1.478       .  S
C435        C591   1.480       .  S
C436        C461   1.492       .  S
C437        H438   1.112       .  S
C437        C443   1.540       .  S
C437        C442   1.538       .  S
C437        C441   1.535       .  S
C439        H440   1.108       .  S
C439        C445   1.538       .  S
C439        C444   1.545       .  S
C439        C446   1.533       .  S
C441        C444   1.384       .  D
C441        C615   1.478       .  S
C442        C581   1.486       .  S
C442        C445   1.379       .  D
C443        C511   1.502       .  S
C443        C446   1.374       .  D
C444        C619   1.506       .  S
C445        C568   1.498       .  S
C446        C521   1.467       .  S
C447        C448   1.400       .  A
C447        C452   1.394       .  A
C447        H453   1.083       .  S
C448        C449   1.404       .  A
C449        C450   1.399       .  A
C449        H454   1.083       .  S
C450        C451   1.405       .  A
C450        H455   1.083       .  S
C451        C452   1.407       .  A
C452        H456   1.083       .  S
C457        C458   1.404       .  A
C457        C462   1.402       .  A
C457        H463   1.083       .  S
C458        C459   1.402       .  A
C459        C460   1.395       .  A
C459        H464   1.084       .  S
C460        C461   1.406       .  A
C460        H465   1.082       .  S
C461        C462   1.406       .  A
C462        H466   1.083       .  S
C467        C468   1.402       .  A
C467        C472   1.379       .  A
C467        H473   1.084       .  S
C468        C469   1.405       .  A
C469        C470   1.407       .  A
C469        H474   1.083       .  S
C470        C471   1.408       .  A
C470        H475   1.083       .  S
C471        C472   1.397       .  A
C472        H476   1.078       .  S
C477        C478   1.404       .  A
C477        C482   1.390       .  A
C477        H483   1.084       .  S
C478        C479   1.407       .  A
C479        C480   1.405       .  A
C479        H484   1.083       .  S
C480        C481   1.403       .  A
C480        H485   1.083       .  S
C481        C482   1.401       .  A
C482        H486   1.083       .  S
C487        C488   1.410       .  A
C487        C492   1.403       .  A
C487        H493   1.083       .  S
C488        C489   1.403       .  A
C489        C490   1.392       .  A
C489        H494   1.083       .  S
C490        C491   1.405       .  A
C490        H495   1.083       .  S
C491        C492   1.400       .  A
C492        H496   1.083       .  S
C497        C498   1.405       .  A
C497        C502   1.395       .  A
C497        H503   1.081       .  S
C498        C499   1.400       .  A
C499        C500   1.400       .  A
C499        H504   1.083       .  S
C500        C501   1.407       .  A
C500        H505   1.083       .  S
C501        C502   1.400       .  A
C502        H506   1.083       .  S
C507        C508   1.404       .  A
C507        C512   1.396       .  A
C507        H513   1.083       .  S
C508        C509   1.409       .  A
C509        C510   1.410       .  A
C509        H514   1.083       .  S
C510        C511   1.408       .  A
C510        H515   1.080       .  S
C511        C512   1.405       .  A
C512        H516   1.077       .  S
C517        C518   1.406       .  A
C517        C522   1.398       .  A
C517        H523   1.083       .  S
C518        C519   1.406       .  A
C519        C520   1.391       .  A
C519        H524   1.083       .  S
C520        C521   1.398       .  A
C520        H525   1.084       .  S
C521        C522   1.401       .  A
C522        H526   1.083       .  S
C527        C528   1.406       .  A
C527        C532   1.395       .  A
C527        H533   1.083       .  S
C528        C529   1.397       .  A
C529        C530   1.397       .  A
C529        H534   1.083       .  S
C530        C531   1.410       .  A
C530        H535   1.083       .  S
C531        C532   1.402       .  A
C532        H536   1.083       .  S
C537        C538   1.397       .  A
C537        C542   1.400       .  A
C537        H543   1.083       .  S
C538        C539   1.405       .  A
C539        C540   1.395       .  A
C539        H544   1.082       .  S
C540        C541   1.399       .  A
C540        H545   1.083       .  S
C541        C542   1.412       .  A
C542        H546   1.083       .  S
C547        C548   1.407       .  A
C547        C552   1.401       .  A
C547        H553   1.083       .  S
C548        C549   1.404       .  A
C549        C550   1.393       .  A
C549        H554   1.083       .  S
C550        C551   1.403       .  A
C550        H555   1.082       .  S
C551        C552   1.404       .  A
C552        H556   1.082       .  S
C557        C558   1.405       .  A
C557        C562   1.399       .  A
C557        H563   1.083       .  S
C558        C559   1.409       .  A
C559        C560   1.400       .  A
C559        H564   1.083       .  S
C560        C561   1.399       .  A
C560        H565   1.083       .  S
C561        C562   1.404       .  A
C562        H566   1.083       .  S
C567        C568   1.412       .  A
C567        C572   1.402       .  A
C567        H573   1.081       .  S
C568        C569   1.403       .  A
C569        C570   1.386       .  A
C569        H574   1.074       .  S
C570        C571   1.402       .  A
C570        H575   1.083       .  S
C571        C572   1.402       .  A
C572        H576   1.083       .  S
C577        C578   1.407       .  A
C577        C582   1.402       .  A
C577        H583   1.083       .  S
C578        C579   1.406       .  A
C579        C580   1.395       .  A
C579        H584   1.083       .  S
C580        C581   1.405       .  A
C580        H585   1.083       .  S
C581        C582   1.403       .  A
C582        H586   1.083       .  S
C587        C588   1.405       .  A
C587        C592   1.400       .  A
C587        H593   1.083       .  S
C588        C589   1.404       .  A
C589        C590   1.392       .  A
C589        H594   1.084       .  S
C590        C591   1.401       .  A
C590        H595   1.083       .  S
C591        C592   1.405       .  A
C592        H596   1.083       .  S
C597        C598   1.404       .  A
C597        C602   1.398       .  A
C597        H603   1.083       .  S
C598        C599   1.405       .  A
C599        C600   1.401       .  A
C599        H604   1.083       .  S
C600        C601   1.405       .  A
C600        H605   1.083       .  S
C601        C602   1.407       .  A
C602        H606   1.082       .  S
C607        C608   1.341       .  D
C607        H609   1.087       .  S
C608        H610   1.085       .  S
C611        C612   1.341       .  D
C611        H613   1.086       .  S
C612        H614   1.085       .  S
C615        C616   1.326       .  D
C615        H617   1.086       .  S
C616        H618   1.081       .  S
C619        C620   1.349       .  D
C619        H621   1.086       .  S
C620        H622   1.081       .  S
C623        C624   1.360       .  D
C623        H625   1.086       .  S
C624        H626   1.081       .  S
C627        C628   1.361       .  D
C627        H629   1.086       .  S
C628        H630   1.084       .  S
C631        C632   1.373       .  D
C631        H633   1.079       .  S
C632        H634   1.085       .  S
C635        C636   1.362       .  D
C635        H637   1.085       .  S
C636        H638   1.085       .  S
O639        C647   1.253       .  A
O639       Co659   1.954       .  S
O640        C648   1.259       .  A
O640       Co660   1.981       .  S
O641        C649   1.292       .  A
O641       Co661   2.056       .  S
O642        C650   1.275       .  A
O642       Co662   2.037   1_554  S
O643        C649   1.278       .  A
O643       Co660   1.913       .  S
O644        C650   1.258       .  A
O644       Co659   1.955       .  S
O645        C648   1.269       .  A
O645       Co981   2.028       .  S
O646        C647   1.257       .  A
O646       Co980   2.004   1_554  S
C647        C954   1.478       .  S
C648        C943   1.489       .  S
C649        C950   1.470       .  S
C650        C947   1.485       .  S
O651        C664   1.259       .  A
O651       Co659   1.982       .  S
O652        C665   1.246       .  A
O652       Co660   1.971       .  S
O653        C666   1.277       .  A
O653       Co980   2.036   1_554  S
O654        C667   1.254       .  A
O654       Co981   1.965       .  S
O655        C667   1.275       .  A
O655       Co660   2.040       .  S
O656        C666   1.263       .  A
O656       Co659   1.969       .  S
O657        C664   1.250       .  A
O657       Co662   1.964   1_554  S
O658        C665   1.252       .  A
O658       Co661   1.993       .  S
Co659       O663   2.091       .  S
Co660       O982   1.993       .  S
Co661       O965   2.008       .  S
Co661       O972   2.039       .  S
Co661       O982   2.178       .  S
Co662       O964   2.017       .  S
Co662       O973   1.976       .  S
Co662       O663   2.106   1_556  S
O663       Co980   2.012   1_554  S
O663       Co979   2.122   1_554  S
C664        C939   1.474       .  S
C665        C927   1.477       .  S
C666        C931   1.484       .  S
C667        C935   1.480       .  S
O668        C676   1.291       .  A
O668       Co688   2.088       .  S
O669        C677   1.277       .  A
O669      Co1008   2.037       .  S
O670        C678   1.272       .  A
O670       Co690   1.974       .  S
O671        C679   1.257       .  A
O672        C678   1.278       .  A
O672       Co689   2.011   1_554  S
O673        C679   1.260       .  A
O673      Co1007   1.984       .  S
O674        C677   1.262       .  A
O674       Co691   1.963       .  S
O675        C676   1.271       .  A
C676        C917   1.478       .  S
C677        C877   1.485       .  S
C678        C867   1.478       .  S
C679        C907   1.470       .  S
O680        C693   1.266       .  A
O680      Co1007   1.972       .  S
O681        C694   1.252       .  A
O681       Co689   1.963   1_554  S
O682        C695   1.296       .  A
O683        C696   1.273       .  A
O683       Co691   2.041       .  S
O684        C696   1.248       .  A
O684      Co1008   1.944       .  S
O685        C695   1.260       .  A
O685       Co688   1.866       .  S
O686        C693   1.278       .  A
O687        C694   1.263       .  A
O687       Co690   2.020       .  S
Co688       O992   1.985   1_554  S
Co688       O999   1.978   1_554  S
Co689       O988   2.038       .  S
Co689      O1003   1.947       .  S
Co689       O692   2.006       .  S
Co690       O692   2.036   1_554  S
Co691      O1011   2.060       .  S
O692      Co1010   2.051       .  S
C693        C897   1.479       .  S
C694        C857   1.471       .  S
C695        C890   1.475       .  S
C696        C850   1.476       .  S
O697        C705   1.277       .  A
O697       Co717   2.030       .  S
O698        C706   1.297       .  A
O698       Co718   2.098       .  S
O699        C707   1.258       .  A
O699       Co719   1.982       .  S
O700        C708   1.272       .  A
O700       Co720   1.976   1_655  S
O701        C707   1.261       .  A
O701      Co1037   2.003   1_554  S
O702        C708   1.279       .  A
O702      Co1036   2.022       .  S
O703        C706   1.273       .  A
O703       Co720   1.902       .  S
O704        C705   1.262       .  A
O704       Co719   1.958   1_655  S
C705        C837   1.475       .  S
C706        C777   1.476       .  S
C707        C770   1.472       .  S
C708        C827   1.485       .  S
O709        C722   1.250       .  A
O709      Co1036   1.964       .  S
O710        C723   1.264       .  A
O710      Co1037   1.962   1_554  S
O711        C724   1.273       .  A
O711       Co719   2.027   1_655  S
O712        C725   1.299       .  A
O712       Co720   2.128       .  S
O713        C725   1.257       .  A
O713       Co718   1.870       .  S
O714        C724   1.256       .  A
O714       Co717   1.961       .  S
O715        C722   1.266       .  A
O715       Co720   2.027   1_655  S
O716        C723   1.278       .  A
O716       Co719   2.033       .  S
Co717      O1021   2.011   1_554  S
Co717      O1028   1.969   1_554  S
Co717       O721   2.006       .  S
Co718      O1020   1.991       .  S
Co718      O1029   1.962       .  S
Co718      O1040   1.979   1_455  S
Co719       O721   2.042   1_455  S
Co720      O1040   2.034   1_455  S
O721      Co1037   1.981   1_654  S
O721      Co1039   2.026   1_654  S
C722        C817   1.468       .  S
C723        C797   1.469       .  S
C724        C807   1.476       .  S
C725        C787   1.460       .  S
C726        H727   1.109       .  S
C726        C732   1.536       .  S
C726        C731   1.529       .  S
C726        C730   1.542       .  S
C728        H729   1.110       .  S
C728        C734   1.539       .  S
C728        C733   1.534       .  S
C728        C735   1.539       .  S
C730        C733   1.375       .  D
C730        C951   1.497       .  S
C731        C880   1.480       .  S
C731        C734   1.372       .  D
C732        C790   1.480       .  S
C732        C735   1.377       .  D
C733        C955   1.474       .  S
C734        C870   1.472       .  S
C735        C800   1.494       .  S
C736        H737   1.109       .  S
C736        C742   1.528       .  S
C736        C741   1.535       .  S
C736        C740   1.552       .  S
C738        H739   1.109       .  S
C738        C744   1.541       .  S
C738        C743   1.545       .  S
C738        C745   1.542       .  S
C740        C743   1.390       .  D
C740        C946   1.496       .  S
C741        C860   1.494       .  S
C741        C744   1.372       .  D
C742        C810   1.484       .  S
C742        C745   1.370       .  D
C743        C942   1.507       .  S
C744        C847   1.481       .  S
C745        C820   1.480       .  S
C746        H747   1.111       .  S
C746        C752   1.535       .  S
C746        C751   1.545       .  S
C746        C750   1.544       .  S
C748        H749   1.104       .  S
C748        C754   1.524       .  S
C748        C753   1.547       .  S
C748        C755   1.536       .  S
C750        C753   1.386       .  D
C750        C930   1.494       .  S
C751        C920   1.494       .  S
C751        C754   1.375       .  D
C752        C767   1.474       .  S
C752        C755   1.373       .  D
C753        C926   1.505       .  S
C754        C910   1.479       .  S
C755        C780   1.495       .  S
C756        H757   1.109       .  S
C756        C762   1.542       .  S
C756        C761   1.546       .  S
C756        C760   1.550       .  S
C758        H759   1.108       .  S
C758        C764   1.531       .  S
C758        C763   1.538       .  S
C758        C765   1.529       .  S
C760        C763   1.371       .  D
C760        C934   1.498       .  S
C761        C900   1.482       .  S
C761        C764   1.378       .  D
C762        C830   1.493       .  S
C762        C765   1.375       .  D
C763        C938   1.485       .  S
C764        C887   1.494       .  S
C765        C840   1.473       .  S
C766        C767   1.401       .  A
C766        C771   1.394       .  A
C766        H772   1.084       .  S
C767        C768   1.401       .  A
C768        C769   1.400       .  A
C768        H773   1.083       .  S
C769        C770   1.406       .  A
C769        H774   1.083       .  S
C770        C771   1.404       .  A
C771        H775   1.084       .  S
C776        C777   1.403       .  A
C776        C781   1.405       .  A
C776        H782   1.083       .  S
C777        C778   1.404       .  A
C778        C779   1.393       .  A
C778        H783   1.083       .  S
C779        C780   1.403       .  A
C779        H784   1.081       .  S
C780        C781   1.410       .  A
C781        H785   1.080       .  S
C786        C787   1.400       .  A
C786        C791   1.396       .  A
C786        H792   1.084       .  S
C787        C788   1.402       .  A
C788        C789   1.397       .  A
C788        H793   1.083       .  S
C789        C790   1.401       .  A
C789        H794   1.083       .  S
C790        C791   1.406       .  A
C791        H795   1.083       .  S
C796        C797   1.403       .  A
C796        C801   1.395       .  A
C796        H802   1.082       .  S
C797        C798   1.399       .  A
C798        C799   1.402       .  A
C798        H803   1.083       .  S
C799        C800   1.411       .  A
C799        H804   1.082       .  S
C800        C801   1.403       .  A
C801        H805   1.083       .  S
C806        C807   1.408       .  A
C806        C811   1.404       .  A
C806        H812   1.083       .  S
C807        C808   1.403       .  A
C808        C809   1.392       .  A
C808        H813   1.082       .  S
C809        C810   1.402       .  A
C809        H814   1.082       .  S
C810        C811   1.402       .  A
C811        H815   1.083       .  S
C816        C817   1.403       .  A
C816        C821   1.396       .  A
C816        H822   1.082       .  S
C817        C818   1.403       .  A
C818        C819   1.402       .  A
C818        H823   1.083       .  S
C819        C820   1.405       .  A
C819        H824   1.083       .  S
C820        C821   1.401       .  A
C821        H825   1.083       .  S
C826        C827   1.406       .  A
C826        C831   1.397       .  A
C826        H832   1.083       .  S
C827        C828   1.407       .  A
C828        C829   1.404       .  A
C828        H833   1.083       .  S
C829        C830   1.406       .  A
C829        H834   1.082       .  S
C830        C831   1.404       .  A
C831        H835   1.082       .  S
C836        C837   1.409       .  A
C836        C841   1.400       .  A
C836        H842   1.083       .  S
C837        C838   1.403       .  A
C838        C839   1.392       .  A
C838        H843   1.083       .  S
C839        C840   1.401       .  A
C839        H844   1.083       .  S
C840        C841   1.400       .  A
C841        H845   1.083       .  S
C846        C847   1.407       .  A
C846        C851   1.395       .  A
C846        H852   1.084       .  S
C847        C848   1.398       .  A
C848        C849   1.399       .  A
C848        H853   1.083       .  S
C849        C850   1.411       .  A
C849        H854   1.083       .  S
C850        C851   1.402       .  A
C851        H855   1.083       .  S
C856        C857   1.399       .  A
C856        C861   1.402       .  A
C856        H862   1.083       .  S
C857        C858   1.405       .  A
C858        C859   1.397       .  A
C858        H863   1.082       .  S
C859        C860   1.401       .  A
C859        H864   1.083       .  S
C860        C861   1.412       .  A
C861        H865   1.082       .  S
C866        C867   1.408       .  A
C866        C871   1.403       .  A
C866        H872   1.083       .  S
C867        C868   1.406       .  A
C868        C869   1.388       .  A
C868        H873   1.083       .  S
C869        C870   1.398       .  A
C869        H874   1.082       .  S
C870        C871   1.401       .  A
C871        H875   1.083       .  S
C876        C877   1.406       .  A
C876        C881   1.399       .  A
C876        H882   1.083       .  S
C877        C878   1.410       .  A
C878        C879   1.401       .  A
C878        H883   1.083       .  S
C879        C880   1.399       .  A
C879        H884   1.083       .  S
C880        C881   1.402       .  A
C881        H885   1.082       .  S
C886        C887   1.411       .  A
C886        C891   1.407       .  A
C886        H892   1.082       .  S
C887        C888   1.402       .  A
C888        C889   1.381       .  A
C888        H893   1.078       .  S
C889        C890   1.401       .  A
C889        H894   1.083       .  S
C890        C891   1.406       .  A
C891        H895   1.083       .  S
C896        C897   1.408       .  A
C896        C901   1.403       .  A
C896        H902   1.083       .  S
C897        C898   1.405       .  A
C898        C899   1.394       .  A
C898        H903   1.083       .  S
C899        C900   1.403       .  A
C899        H904   1.083       .  S
C900        C901   1.403       .  A
C901        H905   1.083       .  S
C906        C907   1.406       .  A
C906        C911   1.399       .  A
C906        H912   1.083       .  S
C907        C908   1.402       .  A
C908        C909   1.389       .  A
C908        H913   1.083       .  S
C909        C910   1.402       .  A
C909        H914   1.082       .  S
C910        C911   1.403       .  A
C911        H915   1.083       .  S
C916        C917   1.402       .  A
C916        C921   1.397       .  A
C916        H922   1.083       .  S
C917        C918   1.407       .  A
C918        C919   1.405       .  A
C918        H923   1.083       .  S
C919        C920   1.404       .  A
C919        H924   1.083       .  S
C920        C921   1.408       .  A
C921        H925   1.082       .  S
C926        C927   1.354       .  D
C926        H928   1.085       .  S
C927        H929   1.080       .  S
C930        C931   1.354       .  D
C930        H932   1.085       .  S
C931        H933   1.086       .  S
C934        C935   1.334       .  D
C934        H936   1.086       .  S
C935        H937   1.086       .  S
C938        C939   1.342       .  D
C938        H940   1.084       .  S
C939        H941   1.083       .  S
C942        C943   1.357       .  D
C942        H944   1.085       .  S
C943        H945   1.084       .  S
C946        C947   1.355       .  D
C946        H948   1.085       .  S
C947        H949   1.085       .  S
C950        C951   1.339       .  D
C950        H952   1.083       .  S
C951        H953   1.083       .  S
C954        C955   1.350       .  D
C954        H956   1.085       .  S
C955        H957   1.084       .  S
O958        C966   1.250       .  A
O958       Co978   1.964       .  S
O959        C967   1.253       .  A
O959       Co979   1.932       .  S
O960        C968   1.280       .  A
O960       Co980   1.981       .  S
O961        C969   1.277       .  A
O961       Co981   2.047       .  S
O962        C968   1.278       .  A
O962       Co979   2.010       .  S
O963        C969   1.254       .  A
O963       Co978   1.938       .  S
O964        C967   1.271       .  A
O965        C966   1.267       .  A
C966       C1273   1.478       .  S
C967       C1262   1.473       .  S
C968       C1269   1.487       .  S
C969       C1266   1.480       .  S
O970        C983   1.255       .  A
O970       Co978   1.976       .  S
O971        C984   1.254       .  A
O971       Co979   2.003       .  S
O972        C985   1.276       .  A
O973        C986   1.262       .  A
O974        C986   1.254       .  A
O974       Co979   1.958       .  S
O975        C985   1.258       .  A
O975       Co978   1.942       .  S
O976        C983   1.259       .  A
O976       Co981   1.984       .  S
O977        C984   1.252       .  A
O977       Co980   1.988       .  S
Co978       O982   2.025       .  S
Co981       O982   2.095       .  S
C983       C1258   1.458       .  S
C984       C1246   1.475       .  S
C985       C1250   1.479       .  S
C986       C1254   1.470       .  S
O987        C995   1.294       .  A
O987      Co1007   2.099       .  S
O988        C996   1.277       .  A
O989        C997   1.273       .  A
O989      Co1009   1.974       .  S
O990        C998   1.258       .  A
O991        C997   1.280       .  A
O991      Co1008   2.017       .  S
O992        C998   1.260       .  A
O993        C996   1.260       .  A
O993      Co1010   1.956       .  S
O994        C995   1.269       .  A
C995       C1236   1.477       .  S
C996       C1196   1.479       .  S
C997       C1186   1.480       .  S
C998       C1226   1.474       .  S
O999       C1012   1.267       .  A
O1000      C1013   1.246       .  A
O1000     Co1008   1.954       .  S
O1001      C1014   1.296       .  A
O1002      C1015   1.273       .  A
O1002     Co1010   2.036       .  S
O1003      C1015   1.252       .  A
O1004      C1014   1.260       .  A
O1004     Co1007   1.871       .  S
O1005      C1012   1.277       .  A
O1006      C1013   1.259       .  A
O1006     Co1009   2.020       .  S
Co1008     O1011   1.995       .  S
Co1009     O1011   2.043       .  S
C1012      C1216   1.484       .  S
C1013      C1176   1.465       .  S
C1014      C1209   1.466       .  S
C1015      C1169   1.474       .  S
O1016      C1024   1.279       .  A
O1016     Co1036   2.039       .  S
O1017      C1025   1.295       .  A
O1017     Co1037   2.095       .  S
O1018      C1026   1.259       .  A
O1018     Co1038   1.986       .  S
O1019      C1027   1.273       .  A
O1019     Co1039   1.977   1_655  S
O1020      C1026   1.259       .  A
O1021      C1027   1.278       .  A
O1022      C1025   1.274       .  A
O1022     Co1039   1.914       .  S
O1023      C1024   1.268       .  A
O1023     Co1038   1.972   1_655  S
C1024      C1156   1.490       .  S
C1025      C1096   1.485       .  S
C1026      C1089   1.468       .  S
C1027      C1146   1.481       .  S
O1028      C1041   1.255       .  A
O1029      C1042   1.263       .  A
O1030      C1043   1.269       .  A
O1030     Co1038   2.019   1_655  S
O1031      C1044   1.294       .  A
O1031     Co1039   2.106       .  S
O1032      C1044   1.261       .  A
O1032     Co1037   1.864       .  S
O1033      C1043   1.252       .  A
O1033     Co1036   1.955       .  S
O1034      C1041   1.270       .  A
O1034     Co1039   2.034   1_655  S
O1035      C1042   1.279       .  A
O1035     Co1038   2.038       .  S
Co1036     O1040   2.000       .  S
Co1038     O1040   2.054   1_455  S
C1041      C1136   1.476       .  S
C1042      C1116   1.470       .  S
C1043      C1126   1.468       .  S
C1044      C1106   1.443       .  S
C1045      H1046   1.111       .  S
C1045      C1051   1.527       .  S
C1045      C1050   1.532       .  S
C1045      C1049   1.533       .  S
C1047      H1048   1.106       .  S
C1047      C1053   1.536       .  S
C1047      C1052   1.553       .  S
C1047      C1054   1.538       .  S
C1049      C1052   1.387       .  D
C1049      C1270   1.495       .  S
C1050      C1199   1.473       .  S
C1050      C1053   1.372       .  D
C1051      C1109   1.468       .  S
C1051      C1054   1.372       .  D
C1052      C1274   1.499       .  S
C1053      C1189   1.484       .  S
C1054      C1119   1.496       .  S
C1055      H1056   1.109       .  S
C1055      C1061   1.532       .  S
C1055      C1060   1.535       .  S
C1055      C1059   1.548       .  S
C1057      H1058   1.106       .  S
C1057      C1063   1.529       .  S
C1057      C1062   1.543       .  S
C1057      C1064   1.532       .  S
C1059      C1062   1.392       .  D
C1059      C1265   1.496       .  S
C1060      C1179   1.485       .  S
C1060      C1063   1.369       .  D
C1061      C1129   1.472       .  S
C1061      C1064   1.368       .  D
C1062      C1261   1.497       .  S
C1063      C1166   1.478       .  S
C1064      C1139   1.487       .  S
C1065      H1066   1.110       .  S
C1065      C1071   1.533       .  S
C1065      C1070   1.541       .  S
C1065      C1069   1.539       .  S
C1067      H1068   1.107       .  S
C1067      C1073   1.532       .  S
C1067      C1072   1.545       .  S
C1067      C1074   1.541       .  S
C1069      C1072   1.379       .  D
C1069      C1249   1.488       .  S
C1070      C1239   1.495       .  S
C1070      C1073   1.377       .  D
C1071      C1086   1.471       .  S
C1071      C1074   1.375       .  D
C1072      C1245   1.496       .  S
C1073      C1229   1.478       .  S
C1074      C1099   1.502       .  S
C1075      H1076   1.112       .  S
C1075      C1081   1.548       .  S
C1075      C1080   1.536       .  S
C1075      C1079   1.542       .  S
C1077      H1078   1.109       .  S
C1077      C1083   1.530       .  S
C1077      C1082   1.542       .  S
C1077      C1084   1.529       .  S
C1079      C1082   1.380       .  D
C1079      C1253   1.482       .  S
C1080      C1219   1.494       .  S
C1080      C1083   1.371       .  D
C1081      C1149   1.490       .  S
C1081      C1084   1.377       .  D
C1082      C1257   1.487       .  S
C1083      C1206   1.475       .  S
C1084      C1159   1.488       .  S
C1085      C1086   1.399       .  A
C1085      C1090   1.391       .  A
C1085      H1091   1.084       .  S
C1086      C1087   1.402       .  A
C1087      C1088   1.401       .  A
C1087      H1092   1.083       .  S
C1088      C1089   1.404       .  A
C1088      H1093   1.083       .  S
C1089      C1090   1.404       .  A
C1090      H1094   1.083       .  S
C1095      C1096   1.403       .  A
C1095      C1100   1.406       .  A
C1095      H1101   1.083       .  S
C1096      C1097   1.407       .  A
C1097      C1098   1.399       .  A
C1097      H1102   1.083       .  S
C1098      C1099   1.404       .  A
C1098      H1103   1.083       .  S
C1099      C1100   1.412       .  A
C1100      H1104   1.080       .  S
C1105      C1106   1.396       .  A
C1105      C1110   1.386       .  A
C1105      H1111   1.084       .  S
C1106      C1107   1.400       .  A
C1107      C1108   1.394       .  A
C1107      H1112   1.083       .  S
C1108      C1109   1.400       .  A
C1108      H1113   1.083       .  S
C1109      C1110   1.404       .  A
C1110      H1114   1.083       .  S
C1115      C1116   1.404       .  A
C1115      C1120   1.396       .  A
C1115      H1121   1.083       .  S
C1116      C1117   1.399       .  A
C1117      C1118   1.403       .  A
C1117      H1122   1.083       .  S
C1118      C1119   1.412       .  A
C1118      H1123   1.083       .  S
C1119      C1120   1.403       .  A
C1120      H1124   1.083       .  S
C1125      C1126   1.407       .  A
C1125      C1130   1.400       .  A
C1125      H1131   1.083       .  S
C1126      C1127   1.402       .  A
C1127      C1128   1.389       .  A
C1127      H1132   1.083       .  S
C1128      C1129   1.401       .  A
C1128      H1133   1.083       .  S
C1129      C1130   1.399       .  A
C1130      H1134   1.083       .  S
C1135      C1136   1.405       .  A
C1135      C1140   1.401       .  A
C1135      H1141   1.083       .  S
C1136      C1137   1.403       .  A
C1137      C1138   1.403       .  A
C1137      H1142   1.083       .  S
C1138      C1139   1.405       .  A
C1138      H1143   1.083       .  S
C1139      C1140   1.404       .  A
C1140      H1144   1.083       .  S
C1145      C1146   1.403       .  A
C1145      C1150   1.389       .  A
C1145      H1151   1.084       .  S
C1146      C1147   1.408       .  A
C1147      C1148   1.407       .  A
C1147      H1152   1.083       .  S
C1148      C1149   1.406       .  A
C1148      H1153   1.081       .  S
C1149      C1150   1.401       .  A
C1150      H1154   1.075       .  S
C1155      C1156   1.409       .  A
C1155      C1160   1.403       .  A
C1155      H1161   1.083       .  S
C1156      C1157   1.407       .  A
C1157      C1158   1.400       .  A
C1157      H1162   1.083       .  S
C1158      C1159   1.406       .  A
C1158      H1163   1.082       .  S
C1159      C1160   1.401       .  A
C1160      H1164   1.082       .  S
C1165      C1166   1.406       .  A
C1165      C1170   1.395       .  A
C1165      H1171   1.084       .  S
C1166      C1167   1.396       .  A
C1167      C1168   1.397       .  A
C1167      H1172   1.083       .  S
C1168      C1169   1.409       .  A
C1168      H1173   1.083       .  S
C1169      C1170   1.403       .  A
C1170      H1174   1.083       .  S
C1175      C1176   1.397       .  A
C1175      C1180   1.399       .  A
C1175      H1181   1.083       .  S
C1176      C1177   1.406       .  A
C1177      C1178   1.395       .  A
C1177      H1182   1.081       .  S
C1178      C1179   1.400       .  A
C1178      H1183   1.083       .  S
C1179      C1180   1.410       .  A
C1180      H1184   1.083       .  S
C1185      C1186   1.409       .  A
C1185      C1190   1.406       .  A
C1185      H1191   1.083       .  S
C1186      C1187   1.404       .  A
C1187      C1188   1.389       .  A
C1187      H1192   1.083       .  S
C1188      C1189   1.399       .  A
C1188      H1193   1.077       .  S
C1189      C1190   1.405       .  A
C1190      H1194   1.083       .  S
C1195      C1196   1.405       .  A
C1195      C1200   1.398       .  A
C1195      H1201   1.083       .  S
C1196      C1197   1.409       .  A
C1197      C1198   1.398       .  A
C1197      H1202   1.083       .  S
C1198      C1199   1.398       .  A
C1198      H1203   1.083       .  S
C1199      C1200   1.402       .  A
C1200      H1204   1.084       .  S
C1205      C1206   1.404       .  A
C1205      C1210   1.404       .  A
C1205      H1211   1.083       .  S
C1206      C1207   1.398       .  A
C1207      C1208   1.384       .  A
C1207      H1212   1.079       .  S
C1208      C1209   1.402       .  A
C1208      H1213   1.084       .  S
C1209      C1210   1.404       .  A
C1210      H1214   1.083       .  S
C1215      C1216   1.408       .  A
C1215      C1220   1.407       .  A
C1215      H1221   1.083       .  S
C1216      C1217   1.405       .  A
C1217      C1218   1.393       .  A
C1217      H1222   1.083       .  S
C1218      C1219   1.405       .  A
C1218      H1223   1.080       .  S
C1219      C1220   1.404       .  A
C1220      H1224   1.083       .  S
C1225      C1226   1.407       .  A
C1225      C1230   1.401       .  A
C1225      H1231   1.083       .  S
C1226      C1227   1.403       .  A
C1227      C1228   1.388       .  A
C1227      H1232   1.083       .  S
C1228      C1229   1.399       .  A
C1228      H1233   1.077       .  S
C1229      C1230   1.404       .  A
C1230      H1234   1.083       .  S
C1235      C1236   1.402       .  A
C1235      C1240   1.396       .  A
C1235      H1241   1.084       .  S
C1236      C1237   1.405       .  A
C1237      C1238   1.404       .  A
C1237      H1242   1.083       .  S
C1238      C1239   1.406       .  A
C1238      H1243   1.083       .  S
C1239      C1240   1.408       .  A
C1240      H1244   1.081       .  S
C1245      C1246   1.350       .  D
C1245      H1247   1.085       .  S
C1246      H1248   1.080       .  S
C1249      C1250   1.349       .  D
C1249      H1251   1.086       .  S
C1250      H1252   1.086       .  S
C1253      C1254   1.341       .  D
C1253      H1255   1.085       .  S
C1254      H1256   1.082       .  S
C1257      C1258   1.340       .  D
C1257      H1259   1.084       .  S
C1258      H1260   1.079       .  S
C1261      C1262   1.356       .  D
C1261      H1263   1.085       .  S
C1262      H1264   1.081       .  S
C1265      C1266   1.355       .  D
C1265      H1267   1.085       .  S
C1266      H1268   1.085       .  S
C1269      C1270   1.361       .  D
C1269      H1271   1.086       .  S
C1270      H1272   1.086       .  S
C1273      C1274   1.354       .  D
C1273      H1275   1.080       .  S
C1274      H1276   1.085       .  S
