geometry optimzed in LAMMPS
_audit_creation_date              2020-12-01 
_audit_creation_method            'lammps2cif' 
_symmetry_space_group_name_H-M    'P1' 
_symmetry_Int_Tables_number       1 
_symmetry_cell_setting            triclinic 
loop_ 
_symmetry_equiv_pos_as_xyz 
  x,y,z 
_cell_length_a                    40.21699525 
_cell_length_b                    41.0062966756504 
_cell_length_c                    39.89576217311727 
_cell_angle_alpha                 91.5069381046776 
_cell_angle_beta                  89.23777489918464 
_cell_angle_gamma                 91.57713160765056 
loop_ 
_atom_site_label 
_atom_site_type_symbol 
_atom_site_fract_x 
_atom_site_fract_y 
_atom_site_fract_z 
_atom_site_charge 
C1          C  0.59773718  0.87024402  0.70711671     0.02900
C2          C  0.60127212  0.90433162  0.71015898    -0.13300
C3          C  0.57306258  0.92345884  0.71536974     0.00400
C4          C  0.54133624  0.90820992  0.71764618    -0.11800
C5          C  0.53772177  0.87417292  0.71456867     0.02900
C6          C  0.56590319  0.85551566  0.70910764    -0.11200
H7          H  0.62570964  0.91593287  0.70790677     0.08500
H8          H  0.51947370  0.92280688  0.72141913     0.06000
H9          H  0.56288911  0.82929294  0.70553901     0.05900
C10         C  0.60316809  0.11822165  0.73584221     0.02900
C11         C  0.57145996  0.13122354  0.74135441    -0.13300
C12         C  0.54304473  0.11062761  0.74246540     0.00400
C13         C  0.54663916  0.07696332  0.73748210    -0.11800
C14         C  0.57796767  0.06369510  0.73155763     0.02900
C15         C  0.60638772  0.08441293  0.73088292    -0.11200
H16         H  0.56901054  0.15738993  0.74420298     0.08500
H17         H  0.52479699  0.06087385  0.73825351     0.06000
H18         H  0.63073747  0.07435395  0.72644030     0.05900
C19         C  0.90286340  0.79216903  0.54383332     0.02900
C20         C  0.89405753  0.78841625  0.51006556    -0.13300
C21         C  0.91842832  0.78400799  0.48503401     0.00400
C22         C  0.95217399  0.78604904  0.49398371    -0.11800
C23         C  0.96142807  0.79140326  0.52764631     0.02900
C24         C  0.93659057  0.79467386  0.55238833    -0.11200
H25         H  0.86798956  0.78648401  0.50357910     0.08500
H26         H  0.97121917  0.78159980  0.47507271     0.06000
H27         H  0.94347239  0.79726757  0.57852034     0.05900
C28         C  0.15213744  0.76189757  0.57872463     0.02900
C29         C  0.11828221  0.76976005  0.57951777    -0.13300
C30         C  0.09994454  0.76857271  0.54968139     0.00400
C31         C  0.11582131  0.75977314  0.51932754    -0.11800
C32         C  0.14952682  0.75189596  0.51841151     0.02900
C33         C  0.16716589  0.75222798  0.54825959    -0.11200
H34         H  0.10666255  0.77777408  0.60285068     0.08500
H35         H  0.10201479  0.75980684  0.49617084     0.06000
H36         H  0.19333361  0.74653513  0.54751452     0.05900
C37         C  0.66228252  0.78587236  0.37417376     0.02900
C38         C  0.67654034  0.79408174  0.40526367    -0.13300
C39         C  0.65724200  0.79436360  0.43464963     0.00400
C40         C  0.62276901  0.78868882  0.43238047    -0.11800
C41         C  0.60768855  0.78200985  0.40137852     0.02900
C42         C  0.62750018  0.78113649  0.37208147    -0.11200
H43         H  0.70336114  0.79669130  0.40709717     0.08500
H44         H  0.60780085  0.78675440  0.45506532     0.06000
H45         H  0.61628951  0.77426750  0.34832864     0.05900
C46         C  0.41056838  0.74159692  0.40705991     0.02900
C47         C  0.44430629  0.74453982  0.39730091    -0.13300
C48         C  0.46954945  0.74517002  0.42140883     0.00400
C49         C  0.46075432  0.74255671  0.45545885    -0.11800
C50         C  0.42736119  0.73928459  0.46543621     0.02900
C51         C  0.40247679  0.73915427  0.44123879    -0.11200
H52         H  0.45089767  0.74712606  0.37106721     0.08500
H53         H  0.47979478  0.74457208  0.47443202     0.06000
H54         H  0.37665465  0.73940167  0.44933521     0.05900
C55         C  0.73464680  0.59061969  0.83668744     0.02900
C56         C  0.73352443  0.59445189  0.87161430    -0.13300
C57         C  0.73620664  0.56698624  0.89148911     0.00400
C58         C  0.73835983  0.53588750  0.87630083    -0.11800
C59         C  0.73932729  0.53213393  0.84137736     0.02900
C60         C  0.73858671  0.55970789  0.82175136    -0.11200
H61         H  0.73090822  0.61847749  0.88314272     0.08500
H62         H  0.74003585  0.51462543  0.89173045     0.06000
H63         H  0.74080443  0.55723790  0.79471082     0.05900
C64         C  0.78980970  0.56572453  0.08272091     0.02900
C65         C  0.77799369  0.57438091  0.05143234    -0.13300
C66         C  0.76565915  0.55040399  0.02887162     0.00400
C67         C  0.76542958  0.51745001  0.03766290    -0.11800
C68         C  0.77693348  0.50863300  0.06903990     0.02900
C69         C  0.78907578  0.53286142  0.09148058    -0.11200
H70         H  0.77816138  0.59984301  0.04474803     0.08500
H71         H  0.75646872  0.49869486  0.02011371     0.06000
H72         H  0.79751966  0.52615359  0.11599402     0.05900
O73         O  0.68868691  0.24628311  0.71428630    -0.81100
O74         O  0.72539068  0.38982814  0.76659868    -0.65800
O75         O  0.72696113  0.30012852  0.73888721    -1.12400
C76         C  0.68515155  0.28763207  0.85082031     1.05800
O77         O  0.75318847  0.37820555  0.81132657    -0.79000
O78         O  0.76188316  0.31808003  0.83431906    -0.66600
Ni79       Ni  0.70561097  0.28749474  0.69755335     1.34900
C80         C  0.76912976  0.29134010  0.81964019     0.84500
O81         O  0.74648633  0.35980469  0.71122317    -0.79600
O82         O  0.72039716  0.32663518  0.67449708    -0.89800
C83         C  0.74110252  0.39915736  0.79251229     0.84100
O84         O  0.66443081  0.30645814  0.70975685    -0.68000
O85         O  0.69785229  0.31592395  0.85708734    -0.87300
C86         C  0.65900409  0.33473226  0.72197290     0.84900
C87         C  0.73813286  0.35213981  0.68152067     1.06500
H88         H  0.68332357  0.33637646  0.79273157     0.38300
O89         O  0.70637896  0.33036394  0.79183593    -1.10000
O90         O  0.75081180  0.27746397  0.79744649    -0.66600
Ni91       Ni  0.70712905  0.28528565  0.78030690     1.26300
O92         O  0.68201286  0.35301170  0.73455541    -0.66900
O93         O  0.68731865  0.27252237  0.82245971    -0.79200
C94         C  0.69195911  0.22918315  0.74023386     0.84300
O95         O  0.70605750  0.24051090  0.76645146    -0.66300
Ni96       Ni  0.72515074  0.34623069  0.83282463     1.27400
Ni97       Ni  0.72610256  0.34549268  0.75149046     1.26100
H98         H  0.74985760  0.29366159  0.73728091     0.38800
O99         O  0.34355754  0.76866902  0.59385523    -0.81100
O100        O  0.29681074  0.83571796  0.72378568    -0.65800
O101        O  0.34870299  0.81233845  0.64785315    -1.12400
C102        C  0.37454887  0.71998624  0.71031699     1.05800
O103        O  0.33332026  0.82143865  0.76151130    -0.79000
O104        O  0.39250989  0.80263529  0.73625558    -0.66600
Ni105      Ni  0.33031536  0.81241043  0.60406599     1.34900
C106        C  0.41008560  0.80407493  0.70959766     0.84500
O107        O  0.31186943  0.86627504  0.66689180    -0.79600
O108        O  0.31607179  0.85633550  0.61113558    -0.89800
C109        C  0.30726491  0.83618091  0.75353237     0.84100
O110        O  0.28712049  0.79548759  0.61454601    -0.68000
O111        O  0.36939676  0.73797201  0.73634316    -0.87300
C112        C  0.26971948  0.79586705  0.64119282     0.84900
C113        C  0.30966245  0.87496824  0.63642315     1.06500
H114        H  0.31336239  0.76839636  0.70114137     0.38300
O115        O  0.33286956  0.78267529  0.70166932    -1.10000
O116        O  0.40064647  0.79084774  0.68205295    -0.66600
Ni117      Ni  0.36052849  0.77107539  0.66414056     1.26300
O118        O  0.28033053  0.80660929  0.66920006    -0.66900
O119        O  0.37097615  0.72970534  0.68069140    -0.79200
C120        C  0.37340067  0.76035600  0.59679146     0.84300
O121        O  0.38692126  0.76144337  0.62521274    -0.66300
Ni122      Ni  0.35112143  0.78039495  0.74585827     1.27400
Ni123      Ni  0.32193744  0.82465201  0.68520627     1.26100
H124        H  0.36809472  0.82680667  0.64754067     0.38800
C125        C  0.11789582  0.61613243  0.24354220     0.02900
C126        C  0.08524915  0.62714599  0.24117701    -0.13300
C127        C  0.05857452  0.60556336  0.23342373     0.00400
C128        C  0.06497741  0.57235103  0.22878036    -0.11800
C129        C  0.09724509  0.56086248  0.23225691     0.02900
C130        C  0.12385167  0.58279648  0.23886782    -0.11200
H131        H  0.08060816  0.65278980  0.24585934     0.08500
H132        H  0.04505973  0.55524856  0.22194155     0.06000
H133        H  0.14885382  0.57387190  0.24034000     0.05900
C134        C  0.11338613  0.36959148  0.19160519     0.02900
C135        C  0.08028639  0.35853940  0.18760028    -0.13300
C136        C  0.05411792  0.37967707  0.19336936     0.00400
C137        C  0.06103011  0.41214042  0.20302752    -0.11800
C138        C  0.09397897  0.42340768  0.20745458     0.02900
C139        C  0.12021411  0.40215398  0.20142383    -0.11200
H140        H  0.07487387  0.33344668  0.17980565     0.08500
H141        H  0.04071813  0.42874438  0.20684894     0.06000
H142        H  0.14571023  0.41089487  0.20437333     0.05900
O143        O  0.93420032  0.69751552  0.24563287    -0.81100
O144        O  0.80098552  0.74729471  0.30165194    -0.65800
O145        O  0.87854234  0.69672903  0.28743318    -1.12400
C146        C  0.81908762  0.65538285  0.19222174     1.05800
O147        O  0.77049399  0.70269206  0.29320911    -0.79000
O148        O  0.79125242  0.64439142  0.27064020    -0.66600
Ni149      Ni  0.92203340  0.71592167  0.28873859     1.34900
C150        C  0.81743017  0.62895317  0.27631399     0.84500
O151        O  0.85704883  0.73954798  0.33805795    -0.79600
O152        O  0.91280122  0.73514268  0.33220083    -0.89800
C153        C  0.77276684  0.73260838  0.30199589     0.84100
O154        O  0.91351441  0.75599496  0.26794403    -0.68000
O155        O  0.79335268  0.66637358  0.20713264    -0.87300
C156        C  0.88758753  0.77258362  0.26554610     0.84900
C157        C  0.88680980  0.74302263  0.34899812     1.06500
H158        H  0.82845520  0.72157847  0.23616075     0.38300
O159        O  0.82712549  0.70480655  0.25271440    -1.10000
O160        O  0.84629335  0.64034708  0.26930026    -0.66600
Ni161      Ni  0.86427594  0.67739285  0.24575350     1.26300
O162        O  0.85873167  0.76218655  0.27427832    -0.66900
O163        O  0.84836820  0.65839425  0.20418601    -0.79200
C164        C  0.93176026  0.66711862  0.23900460     0.84300
O165        O  0.90359750  0.65257033  0.24048346    -0.66300
Ni166      Ni  0.78362935  0.68523361  0.25028934     1.27400
Ni167      Ni  0.84100594  0.72320421  0.29525477     1.26100
H168        H  0.87789306  0.68018872  0.30426230     0.38800
C169        C  0.87056030  0.23821842  0.89750419     0.02900
C170        C  0.90218989  0.22560209  0.89141832    -0.13300
C171        C  0.92303204  0.21952924  0.91842049     0.00400
C172        C  0.91207096  0.22627597  0.95136026    -0.11800
C173        C  0.88022070  0.23816052  0.95769451     0.02900
C174        C  0.85966401  0.24422294  0.93059694    -0.11200
H175        H  0.91117205  0.22212503  0.86587707     0.08500
H176        H  0.92903492  0.22381104  0.97196272     0.06000
H177        H  0.83544247  0.25454858  0.93520062     0.05900
C178        C  0.12075969  0.20218647  0.89628776     0.02900
C179        C  0.13230353  0.20179999  0.92931994    -0.13300
C180        C  0.10981196  0.20183849  0.95649457     0.00400
C181        C  0.07569034  0.20291255  0.95047060    -0.11800
C182        C  0.06388118  0.20324997  0.91757522     0.02900
C183        C  0.08649021  0.20260810  0.89043237    -0.11200
H184        H  0.15879402  0.20106886  0.93384261     0.08500
H185        H  0.05826456  0.20377795  0.97142087     0.06000
H186        H  0.07752136  0.20258281  0.86494557     0.05900
O187        O  0.80822011  0.38820881  0.15082003    -0.81100
O188        O  0.86721558  0.26703336  0.20626500    -0.65800
O189        O  0.84600503  0.33325444  0.14546251    -1.12400
C190        C  0.74688403  0.27532958  0.12469136     1.05800
O191        O  0.84346534  0.22645125  0.17606658    -0.79000
O192        O  0.83174566  0.24720450  0.11356065    -0.66600
Ni193      Ni  0.85392273  0.37805018  0.15570249     1.34900
C194        C  0.82979249  0.26903322  0.09169053     0.84500
O195        O  0.90168861  0.31967669  0.18297448    -0.79600
O196        O  0.89972914  0.36984057  0.16114960    -0.89800
C197        C  0.86367622  0.23678184  0.19858412     0.84100
O198        O  0.84643267  0.37807160  0.20267088    -0.68000
O199        O  0.76484995  0.25068170  0.12915614    -0.87300
C200        C  0.83859250  0.35610487  0.22319853     0.84900
C201        C  0.91559854  0.34647356  0.17324746     1.06500
H202        H  0.79842600  0.28853190  0.18900666     0.38300
O203        O  0.81185033  0.28570254  0.16891804    -1.10000
O204        O  0.81524199  0.29584360  0.09778654    -0.66600
Ni205      Ni  0.80127722  0.31913511  0.13840492     1.26300
O206        O  0.84036666  0.32568259  0.21621775    -0.66900
O207        O  0.75660679  0.30420373  0.13239026    -0.79200
C208        C  0.79416635  0.38339041  0.12293697     0.84300
O209        O  0.79239314  0.35484986  0.11006424    -0.66300
Ni210      Ni  0.80519372  0.24168284  0.15306847     1.27400
Ni211      Ni  0.85683552  0.30165149  0.17697514     1.26100
H212        H  0.85885794  0.32861452  0.12534972     0.38800
C213        C  0.44107983  0.21989867  0.01431795     0.02900
C214        C  0.41939504  0.21477260  0.04156342    -0.13300
C215        C  0.38497334  0.21149798  0.03643726     0.00400
C216        C  0.37258746  0.21345377  0.00372067    -0.11800
C217        C  0.39410303  0.21905113  0.97631772     0.02900
C218        C  0.42841558  0.22226169  0.98199029    -0.11200
H219        H  0.42929900  0.21349364  0.06660323     0.08500
H220        H  0.34619974  0.20954505  0.99954633     0.06000
H221        H  0.44545949  0.22666726  0.96121530     0.05900
C222        C  0.63776591  0.25129574  0.03551765     0.02900
C223        C  0.60431134  0.24232851  0.04155599    -0.13300
C224        C  0.58303285  0.23540709  0.01450595     0.00400
C225        C  0.59524458  0.23740680  0.98155542    -0.11800
C226        C  0.62846562  0.24659991  0.97534728     0.02900
C227        C  0.64975828  0.25301838  0.00236794    -0.11200
H228        H  0.59469528  0.24160860  0.06703453     0.08500
H229        H  0.57849345  0.23319934  0.96071215     0.06000
H230        H  0.67536272  0.26071689  0.99762521     0.05900
C231        C  0.23757091  0.91924041  0.84713393     0.02900
C232        C  0.22771273  0.91173630  0.87970890    -0.13300
C233        C  0.21884291  0.93661527  0.90258284     0.00400
C234        C  0.21739843  0.96898720  0.89160412    -0.11800
C235        C  0.22668720  0.97663285  0.85846536     0.02900
C236        C  0.23735587  0.95144913  0.83682025    -0.11200
H237        H  0.22857756  0.88670750  0.88766919     0.08500
H238        H  0.21079227  0.98832052  0.90926961     0.06000
H239        H  0.24774804  0.95702873  0.81238067     0.05900
C240        C  0.21621899  0.89843106  0.09943250     0.02900
C241        C  0.22193201  0.92927340  0.11437861    -0.13300
C242        C  0.22226038  0.95716179  0.09517336     0.00400
C243        C  0.21723932  0.95412956  0.06060789    -0.11800
C244        C  0.21176071  0.92333563  0.04524268     0.02900
C245        C  0.21131972  0.89525445  0.06472787    -0.11200
H246        H  0.22645790  0.93153821  0.14109947     0.08500
H247        H  0.21841905  0.97573606  0.04548568     0.06000
H248        H  0.20762127  0.87130906  0.05302780     0.05900
O249        O  0.25425004  0.22867132  0.81115337    -0.81100
O250        O  0.39556937  0.17141887  0.77237262    -0.65800
O251        O  0.30599894  0.20087682  0.77144105    -1.12400
C252        C  0.27603869  0.09651871  0.80615468     1.05800
O253        O  0.38554181  0.11904725  0.75877397    -0.79000
O254        O  0.32502908  0.12239185  0.73021073    -0.66600
Ni255      Ni  0.29748549  0.24211303  0.79383878     1.34900
C256        C  0.29568886  0.13141533  0.72497026     0.84500
O257        O  0.36842866  0.22476187  0.75091439    -0.79600
O258        O  0.33915797  0.26205392  0.77909024    -0.89800
C259        C  0.40535971  0.14344881  0.76307477     0.84100
O260        O  0.31630761  0.23005286  0.83517957    -0.68000
O261        O  0.29713018  0.08895914  0.78339657    -0.87300
C262        C  0.34445222  0.21775058  0.83981920     0.84900
C263        C  0.36374577  0.25401866  0.76044582     1.06500
H264        H  0.33968465  0.14804145  0.81621519     0.38300
O265        O  0.33258778  0.14895674  0.79324850    -1.10000
O266        O  0.27724052  0.14322321  0.74847876    -0.66600
Ni267      Ni  0.28775259  0.16299967  0.79263409     1.26300
O268        O  0.36130281  0.20517874  0.81584309    -0.66900
O269        O  0.27157250  0.12570793  0.81570889    -0.79200
C270        C  0.23442853  0.20416482  0.80779786     0.84300
O271        O  0.24342979  0.17802211  0.79319516    -0.66300
Ni272      Ni  0.34045852  0.10756685  0.77167210     1.27400
Ni273      Ni  0.35108865  0.18675274  0.77201967     1.26100
H274        H  0.29868267  0.20173170  0.74851041     0.38800
C275        C  0.27002874  0.05353060  0.34786232     0.02900
C276        C  0.26888740  0.05934546  0.38282816    -0.13300
C277        C  0.26721860  0.03311158  0.40485300     0.00400
C278        C  0.26730545  0.00099767  0.39156526    -0.11800
C279        C  0.26827804  0.99496337  0.35677203     0.02900
C280        C  0.27020550  0.02130156  0.33516548    -0.11200
H281        H  0.26829081  0.08415299  0.39281781     0.08500
H282        H  0.26580408  0.98061318  0.40832714     0.06000
H283        H  0.26989161  0.01667605  0.30828401     0.05900
C284        C  0.26332530  0.06118205  0.60705007     0.02900
C285        C  0.26892337  0.02965247  0.61838361    -0.13300
C286        C  0.27194295  0.00324781  0.59571264     0.00400
C287        C  0.26764024  0.00824184  0.56143402    -0.11800
C288        C  0.26253208  0.03956549  0.54944399     0.02900
C289        C  0.26084519  0.06624271  0.57236904    -0.11200
H290        H  0.27284300  0.02603902  0.64485463     0.08500
H291        H  0.26962806  0.98780740  0.54378073     0.06000
H292        H  0.25789659  0.09066185  0.56332999     0.05900
O293        O  0.19236572  0.15860819  0.07544986    -0.81100
O294        O  0.26476669  0.14297098  0.21571955    -0.65800
O295        O  0.20671806  0.15020773  0.14163446    -1.12400
C296        C  0.19426382  0.25810903  0.18039140     1.05800
O297        O  0.23229725  0.17070651  0.25087121    -0.79000
O298        O  0.17435317  0.18442303  0.22449742    -0.66600
Ni299      Ni  0.22320068  0.13407586  0.09951115     1.34900
C300        C  0.15400293  0.18131395  0.20062887     0.84500
O301        O  0.23932154  0.10023560  0.17059806    -0.79600
O302        O  0.25489276  0.10609138  0.11842266    -0.89800
C303        C  0.25320360  0.14847353  0.24503694     0.84100
O304        O  0.25458580  0.16908408  0.10059608    -0.68000
O305        O  0.19768383  0.24590437  0.20916630    -0.87300
C306        C  0.27832350  0.17110777  0.12134175     0.84900
C307        C  0.24788072  0.08782859  0.14257389     1.06500
H308        H  0.25237992  0.20381952  0.17994964     0.38300
O309        O  0.23161355  0.19218921  0.18429688    -1.10000
O310        O  0.16153129  0.18951078  0.17076574    -0.66600
Ni311      Ni  0.20327889  0.19675716  0.14663600     1.26300
O312        O  0.27670027  0.15734215  0.15005155    -0.66900
O313        O  0.20073425  0.24263793  0.15324712    -0.79200
C314        C  0.17542484  0.18392522  0.08053958     0.84300
O315        O  0.17654985  0.20114231  0.10748873    -0.66300
Ni316      Ni  0.21593293  0.20724196  0.22726216     1.27400
Ni317      Ni  0.23686596  0.14647242  0.17777948     1.26100
H318        H  0.18590513  0.13902580  0.14690276     0.38800
C319        C  0.95268415  0.89167255  0.24673678     0.02900
C320        C  0.94913280  0.92566236  0.24519142    -0.13300
C321        C  0.97677927  0.94692947  0.25142567     0.00400
C322        C  0.00767479  0.93378257  0.25909836    -0.11800
C323        C  0.01107912  0.90002754  0.26115782     0.02900
C324        C  0.98360149  0.87934328  0.25467131    -0.11200
H325        H  0.92508903  0.93545423  0.23984158     0.08500
H326        H  0.02891450  0.94990817  0.26413499     0.06000
H327        H  0.98607130  0.85317229  0.25654951     0.05900
C328        C  0.95977471  0.14198340  0.23599143     0.02900
C329        C  0.95464628  0.10838349  0.24167935    -0.13300
C330        C  0.98149027  0.08715693  0.24045280     0.00400
C331        C  0.01373651  0.09959803  0.23450726    -0.11800
C332        C  0.01954347  0.13298235  0.22931017     0.02900
C333        C  0.99250341  0.15403290  0.23061237    -0.11200
H334        H  0.92983796  0.09856199  0.24656912     0.08500
H335        H  0.03425042  0.08299251  0.23297062     0.06000
H336        H  0.99686512  0.17977542  0.22631476     0.05900
O337        O  0.12328717  0.80201603  0.30786785    -0.81100
O338        O  0.27136826  0.75414375  0.32778401    -0.65800
O339        O  0.18959600  0.79910656  0.32725870    -1.12400
C340        C  0.22671268  0.82665229  0.21715335     1.05800
O341        O  0.29903264  0.79636917  0.30681197    -0.79000
O342        O  0.27116247  0.84997713  0.28366568    -0.66600
Ni343      Ni  0.14971831  0.77410476  0.33432913     1.34900
C344        C  0.24756374  0.86499218  0.29811371     0.84500
O345        O  0.22184217  0.76351875  0.37319437    -0.79600
O346        O  0.17062765  0.74433645  0.36369214    -0.89800
C347        C  0.29828611  0.77073530  0.32410432     0.84100
O348        O  0.15918012  0.74719572  0.29611533    -0.68000
O349        O  0.25540557  0.81677994  0.22489106    -0.87300
C350        C  0.18342203  0.72800720  0.29458823     0.84900
C351        C  0.19494633  0.74970584  0.38331592     1.06500
H352        H  0.22957624  0.76957866  0.26737835     0.38300
O353        O  0.23420178  0.78805382  0.28223749    -1.10000
O354        O  0.21838484  0.85257541  0.30086461    -0.66600
Ni355      Ni  0.19591724  0.81427517  0.28283733     1.26300
O356        O  0.21006468  0.73354878  0.31113090    -0.66900
O357        O  0.20265358  0.82844896  0.23807927    -0.79200
C358        C  0.12815127  0.82943870  0.29414349     0.84300
O359        O  0.15688762  0.83947549  0.28502717    -0.66300
Ni360      Ni  0.27545972  0.80615916  0.26665594     1.27400
Ni361      Ni  0.22948748  0.77504725  0.32760745     1.26100
H362        H  0.19083005  0.81690490  0.34358350     0.38800
C363        C  0.46242412  0.35513768  0.73134159     0.02900
C364        C  0.49611377  0.34701304  0.72972626    -0.13300
C365        C  0.52085794  0.37121011  0.72426765     0.00400
C366        C  0.51161994  0.40349301  0.72028237    -0.11800
C367        C  0.47800889  0.41163199  0.72051981     0.02900
C368        C  0.45343358  0.38750226  0.72640888    -0.11200
H369        H  0.50309194  0.32202863  0.73342050     0.08500
H370        H  0.53064601  0.42231223  0.71638060     0.06000
H371        H  0.42744328  0.39383978  0.72693890     0.05900
C372        C  0.44912433  0.60492357  0.71122490     0.02900
C373        C  0.48106578  0.61689287  0.70322086    -0.13300
C374        C  0.50712437  0.59566782  0.69750119     0.00400
C375        C  0.50141855  0.56210531  0.70050113    -0.11800
C376        C  0.46939323  0.54960194  0.70842593     0.02900
C377        C  0.44301597  0.57117194  0.71323457    -0.11200
H378        H  0.48552850  0.64294813  0.70080882     0.08500
H379        H  0.52185881  0.54569898  0.69647907     0.06000
H380        H  0.41802199  0.56191528  0.71822350     0.05900
C381        C  0.80158435  0.44135315  0.32986856     0.02900
C382        C  0.79715070  0.43921905  0.36481591    -0.13300
C383        C  0.79394385  0.46777579  0.38499674     0.00400
C384        C  0.79571785  0.49837400  0.36976039    -0.11800
C385        C  0.80043192  0.50084081  0.33499872     0.02900
C386        C  0.80319682  0.47220047  0.31526597    -0.11200
H387        H  0.79661363  0.41552566  0.37622303     0.08500
H388        H  0.79385672  0.52045452  0.38513072     0.06000
H389        H  0.80716241  0.47391209  0.28842801     0.05900
C390        C  0.76167090  0.45237507  0.58404126     0.02900
C391        C  0.76864088  0.44842719  0.54961013    -0.13300
C392        C  0.77106147  0.47562663  0.52895464     0.00400
C393        C  0.76601462  0.50700483  0.54309330    -0.11800
C394        C  0.75914235  0.51145969  0.57760443     0.02900
C395        C  0.75777001  0.48392109  0.59789474    -0.11200
H396        H  0.77292911  0.42430668  0.53898468     0.08500
H397        H  0.76698105  0.52792893  0.52704664     0.06000
H398        H  0.75341510  0.48691327  0.62464068     0.05900
O399        O  0.61972455  0.68643991  0.63345882    -0.81100
O400        O  0.76287319  0.75727266  0.61847171    -0.65800
O401        O  0.68673041  0.69968009  0.61945421    -1.12400
C402        C  0.72744503  0.67091134  0.72409714     1.05800
O403        O  0.79627821  0.71939906  0.63591080    -0.79000
O404        O  0.76675894  0.66010284  0.64155721    -0.66600
Ni405      Ni  0.64514661  0.71845311  0.60892024     1.34900
C406        C  0.74155049  0.64098615  0.63871036     0.84500
O407        O  0.71705918  0.74119954  0.57333582    -0.79600
O408        O  0.66385177  0.75211754  0.58073153    -0.89800
C409        C  0.79176580  0.74644633  0.62195217     0.84100
O410        O  0.64886445  0.74652855  0.64739082    -0.68000
O411        O  0.75555745  0.67356251  0.70914169    -0.87300
C412        C  0.67164085  0.76844195  0.65094483     0.84900
C413        C  0.69071186  0.75400667  0.56371557     1.06500
H414        H  0.72921303  0.73436609  0.67828542     0.38300
O415        O  0.73157443  0.71606373  0.66275427    -1.10000
O416        O  0.71312148  0.64839237  0.65073695    -0.66600
Ni417      Ni  0.69282344  0.68881856  0.66572658     1.26300
O418        O  0.70016403  0.76655329  0.63652090    -0.66900
O419        O  0.70048178  0.67958283  0.71127375    -0.79200
C420        C  0.62504282  0.66601709  0.65600940     0.84300
O421        O  0.65302809  0.66307340  0.66951161    -0.66300
Ni422      Ni  0.77324365  0.69693628  0.67133689     1.27400
Ni423      Ni  0.72440747  0.72925075  0.61834552     1.26100
H424        H  0.69057906  0.68118546  0.60454711     0.38800
C425        C  0.77547502  0.57081724  0.58417229    -0.26600
C426        C  0.75367823  0.54481676  0.59251115    -0.14600
C427        C  0.72702865  0.55108434  0.61502347     0.36000
C428        C  0.72323643  0.58254734  0.62926697    -0.26000
C429        C  0.74554897  0.60838627  0.62163264    -0.15200
C430        C  0.77164707  0.60232101  0.59834910     0.37100
N431        N  0.79411834  0.62815096  0.58853526    -0.89500
H432        H  0.79596715  0.56661515  0.56682270     0.18200
H433        H  0.70285803  0.58658840  0.64679748     0.18200
N434        N  0.70329052  0.52571532  0.62308729    -0.88500
H435        H  0.79268312  0.63035851  0.56254643     0.35600
H436        H  0.81827557  0.62147230  0.59417090     0.40700
H437        H  0.67971892  0.53325268  0.61638624     0.40300
H438        H  0.70329605  0.52291976  0.64906537     0.35200
C439        C  0.81063243  0.48618190  0.44261156    -0.26600
C440        C  0.78961397  0.46652097  0.42216338    -0.14600
C441        C  0.76367644  0.44793653  0.43733238     0.36000
C442        C  0.75864453  0.45042720  0.47238181    -0.26000
C443        C  0.77876052  0.47135186  0.49249448    -0.15200
C444        C  0.80565414  0.48858979  0.47753378     0.37100
N445        N  0.82785871  0.50843406  0.49794241    -0.89500
H446        H  0.83095108  0.49996592  0.43115787     0.18200
H447        H  0.73820539  0.43689507  0.48393631     0.18200
N448        N  0.74190402  0.42748663  0.41706608    -0.88500
H449        H  0.84637525  0.51950373  0.48314105     0.35600
H450        H  0.83991772  0.49293541  0.51394878     0.40700
H451        H  0.72875461  0.44263108  0.40159678     0.40300
H452        H  0.72425262  0.41539039  0.43207110     0.35200
C453        C  0.55822646  0.62789369  0.71115809    -0.26600
C454        C  0.53992098  0.60929568  0.68752793    -0.14600
C455        C  0.55057402  0.60793524  0.65374460     0.36000
C456        C  0.57896231  0.62622470  0.64399217    -0.26000
C457        C  0.59693633  0.64531996  0.66751240    -0.15200
C458        C  0.58664241  0.64609804  0.70144991     0.37100
N459        N  0.60405498  0.66665242  0.72551510    -0.89500
H460        H  0.54944485  0.62925737  0.73695046     0.18200
H461        H  0.58687511  0.62597897  0.61791536     0.18200
N462        N  0.53159369  0.58930626  0.62929550    -0.88500
H463        H  0.59315598  0.66451701  0.74932943     0.35600
H464        H  0.60132545  0.69086360  0.71868379     0.40700
H465        H  0.53314896  0.56468778  0.63508672     0.40300
H466        H  0.54220980  0.59175682  0.60539683     0.35200
C467        C  0.47414720  0.49461945  0.68239797    -0.26600
C468        C  0.46431892  0.51381792  0.71022959    -0.14600
C469        C  0.45437358  0.49835895  0.74020607     0.36000
C470        C  0.45691089  0.46447312  0.74238044    -0.26000
C471        C  0.46927062  0.44578284  0.71527986    -0.15200
C472        C  0.47664873  0.46089520  0.68458273     0.37100
N473        N  0.48695926  0.44260543  0.65533793    -0.89500
H474        H  0.48131852  0.50616156  0.65915305     0.18200
H475        H  0.45093786  0.45291517  0.76591695     0.18200
N476        N  0.44355395  0.51647929  0.76934417    -0.88500
H477        H  0.46882530  0.42446302  0.65022385     0.35600
H478        H  0.50934395  0.43142056  0.66014894     0.40700
H479        H  0.42175057  0.52830639  0.76366546     0.40300
H480        H  0.46193767  0.53399994  0.77566730     0.35200
C481        C  0.04074637  0.86264825  0.29741373    -0.26600
C482        C  0.04243927  0.88556310  0.27194116    -0.14600
C483        C  0.07314909  0.89215386  0.25583559     0.36000
C484        C  0.10115456  0.87446020  0.26420995    -0.26000
C485        C  0.09893968  0.84985842  0.28814908    -0.15200
C486        C  0.06850169  0.84479513  0.30580220     0.37100
N487        N  0.06568687  0.82153191  0.33213360    -0.89500
H488        H  0.01732215  0.85827120  0.31051073     0.18200
H489        H  0.12442396  0.87930157  0.25109519     0.18200
N490        N  0.07569504  0.91571323  0.22999738    -0.88500
H491        H  0.04143446  0.82030686  0.34189035     0.35600
H492        H  0.08091451  0.83005189  0.35170413     0.40700
H493        H  0.08402740  0.90393004  0.20802345     0.40300
H494        H  0.09371645  0.93334215  0.23706454     0.35200
C495        C  0.96356812  0.99723483  0.22068217    -0.26600
C496        C  0.97406903  0.98296669  0.25021885    -0.14600
C497        C  0.98500743  0.00338859  0.27716811     0.36000
C498        C  0.98589729  0.03739873  0.27396384    -0.26000
C499        C  0.97629781  0.05155785  0.24416653    -0.15200
C500        C  0.96511003  0.03121725  0.21722912     0.37100
N501        N  0.95680131  0.04438214  0.18560867    -0.89500
H502        H  0.95576280  0.98182266  0.19958494     0.18200
H503        H  0.99494910  0.05281341  0.29455608     0.18200
N504        N  0.99562374  0.98961374  0.30773795    -0.88500
H505        H  0.97758523  0.05737753  0.17645654     0.35600
H506        H  0.93750486  0.06065790  0.18951212     0.40700
H507        H  0.98096566  0.99898586  0.32736587     0.40300
H508        H  0.02025553  0.99736481  0.31186327     0.35200
C509        C  0.08028613  0.13601039  0.24136513    -0.26600
C510        C  0.05385035  0.14544530  0.22151642    -0.14600
C511        C  0.06067003  0.16564356  0.19395006     0.36000
C512        C  0.09347734  0.17698158  0.18774644    -0.26000
C513        C  0.11987756  0.16820679  0.20810613    -0.15200
C514        C  0.11297252  0.14690199  0.23501638     0.37100
N515        N  0.13852568  0.13501035  0.25584218    -0.89500
H516        H  0.07547364  0.12010152  0.26225704     0.18200
H517        H  0.09841189  0.19284659  0.16685891     0.18200
N518        N  0.03441105  0.17400458  0.17190473    -0.88500
H519        H  0.14916304  0.15446994  0.26972276     0.35600
H520        H  0.15667806  0.12412830  0.24060210     0.40700
H521        H  0.02559967  0.15241856  0.16017943     0.40300
H522        H  0.04354232  0.18899253  0.15288482     0.35200
C523        C  0.28732670  0.94880671  0.31977521    -0.26600
C524        C  0.26386796  0.96134072  0.34267485    -0.14600
C525        C  0.23508963  0.94258776  0.35021451     0.36000
C526        C  0.23052527  0.91140251  0.33557511    -0.26000
C527        C  0.25400007  0.89837770  0.31280288    -0.15200
C528        C  0.28267884  0.91763258  0.30453724     0.37100
N529        N  0.30665522  0.90593210  0.28034619    -0.89500
H530        H  0.30914648  0.96361470  0.31348690     0.18200
H531        H  0.20820877  0.89742682  0.34205191     0.18200
N532        N  0.20979902  0.95566490  0.37189454    -0.88500
H533        H  0.32648300  0.92275762  0.27781158     0.35600
H534        H  0.29498056  0.90432192  0.25707246     0.40700
H535        H  0.20621887  0.93996322  0.39192507     0.40300
H536        H  0.18764748  0.95593395  0.35849100     0.35200
C537        C  0.29138489  0.08265483  0.29741229    -0.26600
C538        C  0.26820048  0.08056624  0.32399291    -0.14600
C539        C  0.24155958  0.10207767  0.32538830     0.36000
C540        C  0.23852334  0.12516731  0.30042988    -0.26000
C541        C  0.26105797  0.12677015  0.27309613    -0.15200
C542        C  0.28812268  0.10546752  0.27191974     0.37100
N543        N  0.31184510  0.10660808  0.24469798    -0.89500
H544        H  0.31176155  0.06589874  0.29622247     0.18200
H545        H  0.21718621  0.14075042  0.30164998     0.18200
N546        N  0.21633195  0.09921888  0.35093488    -0.88500
H547        H  0.32978520  0.08890202  0.24729852     0.35600
H548        H  0.32438689  0.12925837  0.24627731     0.40700
H549        H  0.19351656  0.09447102  0.33925426     0.40300
H550        H  0.21497338  0.12167653  0.36383194     0.35200
C551        C  0.28785494  0.05721665  0.45940461    -0.26600
C552        C  0.26353619  0.03880390  0.44170306    -0.14600
C553        C  0.23655056  0.02450613  0.45952277     0.36000
C554        C  0.23579048  0.02670463  0.49474142    -0.26000
C555        C  0.26104754  0.04350022  0.51258952    -0.15200
C556        C  0.28693247  0.05963231  0.49476726     0.37100
N557        N  0.31278993  0.07729941  0.51265343    -0.89500
H558        H  0.30837092  0.06848259  0.44568672     0.18200
H559        H  0.21586989  0.01446846  0.50847925     0.18200
N560        N  0.21025884  0.00741129  0.44170918    -0.88500
H561        H  0.32989719  0.08780863  0.49588534     0.35600
H562        H  0.32580725  0.06050041  0.52632445     0.40700
H563        H  0.19849436  0.02435437  0.42709159     0.40300
H564        H  0.19226166  0.99833596  0.45843609     0.35200
C565        C  0.39473831  0.30540323  0.77509357    -0.26600
C566        C  0.38872437  0.27980998  0.75160097    -0.14600
C567        C  0.40734654  0.27929748  0.72116281     0.36000
C568        C  0.43091707  0.30429710  0.71492411    -0.26000
C569        C  0.43670651  0.32973345  0.73849014    -0.15200
C570        C  0.41862314  0.33000618  0.76903435     0.37100
N571        N  0.42489204  0.35426712  0.79485422    -0.89500
H572        H  0.38135105  0.30589038  0.79885766     0.18200
H573        H  0.44491467  0.30384589  0.69151572     0.18200
N574        N  0.40251706  0.25424865  0.69585623    -0.88500
H575        H  0.41983656  0.37718666  0.78564125     0.35600
H576        H  0.45006525  0.35388903  0.80102148     0.40700
H577        H  0.37735501  0.25301425  0.68955206     0.40300
H578        H  0.40926432  0.23193685  0.70542220     0.35200
C579        C  0.25060544  0.10923993  0.68789178    -0.26600
C580        C  0.28226041  0.12425550  0.69101422    -0.14600
C581        C  0.30358562  0.12537244  0.66256600     0.36000
C582        C  0.29489992  0.10748037  0.63326681    -0.26000
C583        C  0.26534236  0.08863719  0.63192750    -0.15200
C584        C  0.24206497  0.09126613  0.65868870     0.37100
N585        N  0.21024418  0.07473012  0.65735586    -0.89500
H586        H  0.23372876  0.10872110  0.70928985     0.18200
H587        H  0.31257478  0.10587950  0.61257971     0.18200
N588        N  0.33497490  0.14292926  0.66440001    -0.88500
H589        H  0.21373014  0.04964157  0.65474370     0.35600
H590        H  0.19798771  0.08240917  0.63612427     0.40700
H591        H  0.32993092  0.16763255  0.66825191     0.40300
H592        H  0.34793885  0.14098963  0.64157333     0.35200
C593        C  0.18816536  0.86511024  0.14164651    -0.26600
C594        C  0.21637339  0.87032692  0.12142946    -0.14600
C595        C  0.24661524  0.85603475  0.12976013     0.36000
C596        C  0.24879082  0.83998863  0.16016796    -0.26000
C597        C  0.22146453  0.83787559  0.18248970    -0.15200
C598        C  0.19032061  0.84905541  0.17202474     0.37100
N599        N  0.16110514  0.84582333  0.19274430    -0.89500
H600        H  0.16494613  0.87614242  0.13529986     0.18200
H601        H  0.27268471  0.83082770  0.16710756     0.18200
N602        N  0.27614498  0.85939877  0.10926945    -0.88500
H603        H  0.14298487  0.83265559  0.17908566     0.35600
H604        H  0.15221704  0.86917521  0.19785966     0.40700
H605        H  0.27139785  0.87138314  0.08715010     0.40300
H606        H  0.28325647  0.83591347  0.10192708     0.35200
C607        C  0.25857851  0.00634105  0.09919051    -0.26600
C608        C  0.23018756  0.98931852  0.11081821    -0.14600
C609        C  0.21026963  0.00344564  0.13665958     0.36000
C610        C  0.21918729  0.03447898  0.14966196    -0.26000
C611        C  0.24620371  0.05236127  0.13623110    -0.15200
C612        C  0.26655135  0.03778548  0.11142282     0.37100
N613        N  0.29489397  0.05519589  0.09803658    -0.89500
H614        H  0.27420716  0.99544801  0.07982673     0.18200
H615        H  0.20304889  0.04582159  0.16828942     0.18200
N616        N  0.18003415  0.98813826  0.14901339    -0.88500
H617        H  0.29179791  0.05697267  0.07217129     0.35600
H618        H  0.31594512  0.04144673  0.10192607     0.40700
H619        H  0.17421996  0.96638615  0.13604553     0.40300
H620        H  0.16053981  0.00365804  0.14424461     0.35200
C621        C  0.23798961  0.04831982  0.80114502    -0.26600
C622        C  0.25638634  0.07007654  0.82165166    -0.14600
C623        C  0.25938547  0.06384214  0.85597486     0.36000
C624        C  0.24680598  0.03426722  0.86857932    -0.26000
C625        C  0.23093289  0.01092865  0.84735823    -0.15200
C626        C  0.22459038  0.01920127  0.81385463     0.37100
N627        N  0.20540392  0.99762545  0.79235612    -0.89500
H628        H  0.23497727  0.05343056  0.77484923     0.18200
H629        H  0.25183465  0.02864032  0.89436468     0.18200
N630        N  0.27732826  0.08637951  0.87752101    -0.88500
H631        H  0.22009281  0.99149218  0.77141691     0.35600
H632        H  0.18506400  0.01034731  0.78398183     0.40700
H633        H  0.29722681  0.07421997  0.88764649     0.40300
H634        H  0.26143747  0.09327114  0.89725877     0.35200
C635        C  0.18739480  0.94129209  0.95675600    -0.26600
C636        C  0.21476876  0.92929097  0.93861123    -0.14600
C637        C  0.23913715  0.91196371  0.95554511     0.36000
C638        C  0.23613190  0.90774256  0.99018228    -0.26000
C639        C  0.20970877  0.92124206  0.00842288    -0.15200
C640        C  0.18478652  0.93747632  0.99152749     0.37100
N641        N  0.15719761  0.95069949  0.00985625    -0.89500
H642        H  0.16839956  0.95433372  0.94403155     0.18200
H643        H  0.25569821  0.89577264  0.00320282     0.18200
N644        N  0.26804643  0.90037457  0.93808875    -0.88500
H645        H  0.13534832  0.94019815  0.99995551     0.35600
H646        H  0.15701678  0.97578970  0.00586206     0.40700
H647        H  0.26898767  0.87517888  0.94119567     0.40300
H648        H  0.28908927  0.91128316  0.94924526     0.35200
C649        C  0.33881585  0.16987953  0.10811897    -0.26600
C650        C  0.30919942  0.18718220  0.10896761    -0.14600
C651        C  0.30707737  0.21552051  0.08992750     0.36000
C652        C  0.33314414  0.22437425  0.06810633    -0.26000
C653        C  0.36144454  0.20526861  0.06469366    -0.15200
C654        C  0.36486207  0.17854235  0.08587420     0.37100
N655        N  0.39351469  0.15864072  0.08300493    -0.89500
H656        H  0.34050941  0.14778902  0.12225764     0.18200
H657        H  0.33048276  0.24532102  0.05243264     0.18200
N658        N  0.27754983  0.23433366  0.09139702    -0.88500
H659        H  0.38553329  0.13480791  0.07671164     0.35600
H660        H  0.40467609  0.15837960  0.10650867     0.40700
H661        H  0.26766850  0.23467691  0.06729772     0.40300
H662        H  0.28432033  0.25828978  0.09853968     0.35200
C663        C  0.39788798  0.20190409  0.91609078    -0.26600
C664        C  0.38129899  0.21957112  0.94148750    -0.14600
C665        C  0.35309094  0.23719768  0.93314334     0.36000
C666        C  0.34171927  0.23626024  0.89998533    -0.26000
C667        C  0.35819533  0.21836946  0.87442242    -0.15200
C668        C  0.38702179  0.20119675  0.88297256     0.37100
N669        N  0.40585776  0.18241802  0.85903937    -0.89500
H670        H  0.41946204  0.18800637  0.92208563     0.18200
H671        H  0.31990364  0.24992533  0.89431175     0.18200
N672        N  0.33632548  0.25672875  0.95803047    -0.88500
H673        H  0.41542172  0.19781389  0.84058541     0.35600
H674        H  0.39044618  0.16417013  0.84832750     0.40700
H675        H  0.31151647  0.24849181  0.95938263     0.40300
H676        H  0.33667275  0.28081894  0.95004761     0.35200
C677        C  0.49684403  0.19558608  0.01490380    -0.26600
C678        C  0.47725601  0.22318445  0.01913496    -0.14600
C679        C  0.49265234  0.25408048  0.02469134     0.36000
C680        C  0.52732367  0.25699634  0.02527041    -0.26000
C681        C  0.54706501  0.22964129  0.01987606    -0.15200
C682        C  0.53168586  0.19838762  0.01519165     0.37100
N683        N  0.55045490  0.16931580  0.00974117    -0.89500
H684        H  0.48497924  0.17185541  0.01034072     0.18200
H685        H  0.53899987  0.28101764  0.02833532     0.18200
N686        N  0.47359240  0.28296230  0.02859539    -0.88500
H687        H  0.54470987  0.15372606  0.02944080     0.35600
H688        H  0.57601526  0.17424465  0.01089247     0.40700
H689        H  0.45734141  0.28002525  0.04902869     0.40300
H690        H  0.45942688  0.28537311  0.00705973     0.35200
C691        C  0.70259606  0.29619622  0.08851731    -0.26600
C692        C  0.71459138  0.27054885  0.10727580    -0.14600
C693        C  0.69718333  0.24017685  0.10629866     0.36000
C694        C  0.67043917  0.23507462  0.08430480    -0.26000
C695        C  0.66052425  0.25988629  0.06340809    -0.15200
C696        C  0.67562716  0.29139100  0.06689913     0.37100
N697        N  0.66489415  0.31877946  0.04838593    -0.89500
H698        H  0.71512437  0.31994081  0.08945036     0.18200
H699        H  0.65844962  0.21111310  0.08234623     0.18200
N700        N  0.70679917  0.21431340  0.12724379    -0.88500
H701        H  0.65762107  0.33676704  0.06583275     0.35600
H702        H  0.64373446  0.31284910  0.03440134     0.40700
H703        H  0.71258619  0.19419327  0.11183102     0.40300
H704        H  0.68631839  0.20774227  0.14226690     0.35200
C705        C  0.88136576  0.17911797  0.20298116    -0.26600
C706        C  0.88484569  0.21190302  0.21422758    -0.14600
C707        C  0.91017629  0.21999476  0.23747240     0.36000
C708        C  0.93309708  0.19627758  0.24614910    -0.26000
C709        C  0.93132154  0.16433865  0.23221846    -0.15200
C710        C  0.90427159  0.15559976  0.21138620     0.37100
N711        N  0.90098251  0.12339986  0.19678612    -0.89500
H712        H  0.86169607  0.17174404  0.18587236     0.18200
H713        H  0.95314623  0.20324058  0.26297993     0.18200
N714        N  0.91332363  0.25229996  0.25179532    -0.88500
H715        H  0.90140303  0.12523509  0.17069549     0.35600
H716        H  0.87778501  0.11354153  0.20393974     0.40700
H717        H  0.93703071  0.26169726  0.24580712     0.40300
H718        H  0.91154547  0.25064380  0.27787067     0.35200
C719        C  0.83693489  0.39571220  0.30939261    -0.26600
C720        C  0.80670100  0.41197691  0.30800635    -0.14600
C721        C  0.78435788  0.40384732  0.28193644     0.36000
C722        C  0.79396993  0.38185702  0.25617363    -0.26000
C723        C  0.82550393  0.36799500  0.25587146    -0.15200
C724        C  0.84669658  0.37415399  0.28335774     0.37100
N725        N  0.87913724  0.36066965  0.28419799    -0.89500
H726        H  0.85424356  0.40190070  0.32930270     0.18200
H727        H  0.77786883  0.37752272  0.23483791     0.18200
N728        N  0.75286412  0.41949980  0.28073576    -0.88500
H729        H  0.89270100  0.36843927  0.26319942     0.35600
H730        H  0.87639844  0.33525224  0.28252092     0.40700
H731        H  0.73894716  0.41232429  0.30173433     0.40300
H732        H  0.73954686  0.41125911  0.25968168     0.35200
C733        C  0.13186002  0.16786141  0.04031286    -0.26600
C734        C  0.15340595  0.19244191  0.05313759    -0.14600
C735        C  0.15797234  0.22162552  0.03564509     0.36000
C736        C  0.14242418  0.22491463  0.00460044    -0.26000
C737        C  0.12211183  0.19958384  0.99107578    -0.15200
C738        C  0.11602486  0.17118635  0.00973898     0.37100
N739        N  0.09541130  0.14456503  0.99742776    -0.89500
H740        H  0.12849602  0.14519638  0.05350172     0.18200
H741        H  0.14707269  0.24684402  0.99049544     0.18200
N742        N  0.17980012  0.24708558  0.04827277    -0.88500
H743        H  0.10445782  0.13694634  0.97389943     0.35600
H744        H  0.07121949  0.15267739  0.99481759     0.40700
H745        H  0.16620955  0.26842536  0.05048572     0.40300
H746        H  0.19871574  0.25099019  0.03048160     0.35200
C747        C  0.15858227  0.23273621  0.85805503    -0.26600
C748        C  0.14505746  0.20275290  0.86825614    -0.14600
C749        C  0.15753048  0.17370193  0.85436696     0.36000
C750        C  0.18512157  0.17492130  0.83246537    -0.26000
C751        C  0.20097450  0.20488033  0.82447691    -0.15200
C752        C  0.18625974  0.23422357  0.83639491     0.37100
N753        N  0.19880717  0.26588724  0.82742328    -0.89500
H754        H  0.14853590  0.25520206  0.86830197     0.18200
H755        H  0.19532320  0.15209892  0.82340268     0.18200
N756        N  0.14300298  0.14287100  0.86351477    -0.88500
H757        H  0.20074076  0.26671164  0.80129762     0.35600
H758        H  0.22217858  0.27012927  0.83800441     0.40700
H759        H  0.16151119  0.12917781  0.87414703     0.40300
H760        H  0.13513074  0.13062365  0.84158745     0.35200
C761        C  0.85971784  0.27812901  0.00076892    -0.26600
C762        C  0.86898613  0.24613908  0.99244018    -0.14600
C763        C  0.86594912  0.22203238  0.01700047     0.36000
C764        C  0.85382524  0.23029228  0.04904349    -0.26000
C765        C  0.84413027  0.26223945  0.05755600    -0.15200
C766        C  0.84735442  0.28640412  0.03292074     0.37100
N767        N  0.83810354  0.31935063  0.04021798    -0.89500
H768        H  0.86193361  0.29682248  0.98209060     0.18200
H769        H  0.85130814  0.21116350  0.06719693     0.18200
N770        N  0.87348416  0.18861050  0.00974070    -0.88500
H771        H  0.81978124  0.32544601  0.02329623     0.35600
H772        H  0.85892717  0.33464145  0.03618917     0.40700
H773        H  0.89879713  0.18701092  0.00408149     0.40300
H774        H  0.85981566  0.18047110  0.98888703     0.35200
C775        C  0.97930826  0.23629347  0.89940509    -0.26600
C776        C  0.95829483  0.21189161  0.91263503    -0.14600
C777        C  0.97211035  0.18307288  0.92439266     0.36000
C778        C  0.00666661  0.17992908  0.92397643    -0.26000
C779        C  0.02775880  0.20514180  0.91230779    -0.15200
C780        C  0.01382055  0.23345361  0.89958405     0.37100
N781        N  0.03408387  0.26064711  0.88898294    -0.89500
H782        H  0.96888687  0.25868396  0.89088855     0.18200
H783        H  0.01721799  0.15821057  0.93395162     0.18200
N784        N  0.95169820  0.15688294  0.93709485    -0.88500
H785        H  0.04897139  0.25312884  0.86873963     0.35600
H786        H  0.04945170  0.26827653  0.90878511     0.40700
H787        H  0.93482094  0.14943819  0.91852437     0.40300
H788        H  0.93830813  0.16541513  0.95798027     0.35200
C789        C  0.78505629  0.58832177  0.31032150    -0.26600
C790        C  0.81388753  0.59603395  0.29139081    -0.14600
C791        C  0.83765098  0.57134849  0.28584688     0.36000
C792        C  0.83254537  0.54063447  0.29996429    -0.26000
C793        C  0.80418132  0.53341642  0.31952653    -0.15200
C794        C  0.78003975  0.55739629  0.32425740     0.37100
N795        N  0.74992059  0.55011302  0.34244294    -0.89500
H796        H  0.76615003  0.60638474  0.31436570     0.18200
H797        H  0.85113297  0.52225928  0.29582545     0.18200
N798        N  0.86670976  0.57614113  0.26520298    -0.88500
H799        H  0.72992576  0.55341473  0.32650682     0.35600
H800        H  0.74806510  0.56695198  0.36246864     0.40700
H801        H  0.88201608  0.59425357  0.27628010     0.40300
H802        H  0.85941362  0.58343250  0.24154124     0.35200
C803        C  0.90922713  0.81265101  0.22439990    -0.26600
C804        C  0.89254768  0.80662520  0.25480280    -0.14600
C805        C  0.88840174  0.83256751  0.27834238     0.36000
C806        C  0.90456032  0.86292199  0.27278315    -0.26000
C807        C  0.92452514  0.86768357  0.24412491    -0.15200
C808        C  0.92478702  0.84302707  0.21867071     0.37100
N809        N  0.94240796  0.84765180  0.18763128    -0.89500
H810        H  0.91227794  0.79293412  0.20608308     0.18200
H811        H  0.90452820  0.88164033  0.29247492     0.18200
N812        N  0.87097073  0.82687504  0.30942615    -0.88500
H813        H  0.96757069  0.85227430  0.19251943     0.35600
H814        H  0.93298012  0.86815892  0.17640793     0.40700
H815        H  0.84602435  0.82182643  0.30374951     0.40300
H816        H  0.87139729  0.84799621  0.32469422     0.35200
C817        C  0.14027097  0.32762387  0.15590869    -0.26600
C818        C  0.14021489  0.34628726  0.18579235    -0.14600
C819        C  0.16237669  0.33908007  0.21135072     0.36000
C820        C  0.18221963  0.31163978  0.20770814    -0.26000
C821        C  0.17988608  0.29090087  0.17911825    -0.15200
C822        C  0.15950481  0.29997966  0.15233495     0.37100
N823        N  0.15589048  0.28066564  0.12213988    -0.89500
H824        H  0.12350849  0.33337855  0.13596742     0.18200
H825        H  0.19798791  0.30545554  0.22829509     0.18200
N826        N  0.16312960  0.35816215  0.24193483    -0.88500
H827        H  0.14658138  0.25747280  0.12814953     0.35600
H828        H  0.17923455  0.27886678  0.11055302     0.40700
H829        H  0.18745157  0.36720163  0.24529806     0.40300
H830        H  0.15718637  0.34275730  0.26173701     0.35200
C831        C  0.96899225  0.33828833  0.20290979    -0.26600
C832        C  0.95201243  0.35183859  0.17632144    -0.14600
C833        C  0.96965212  0.37281144  0.15425070     0.36000
C834        C  0.00303345  0.38111522  0.16016384    -0.26000
C835        C  0.01953290  0.36853721  0.18735552    -0.15200
C836        C  0.00254557  0.34648836  0.20863556     0.37100
N837        N  0.01840003  0.33314374  0.23692522    -0.89500
H838        H  0.95584254  0.32228994  0.22008124     0.18200
H839        H  0.01613446  0.39767996  0.14349322     0.18200
N840        N  0.95383251  0.38570367  0.12565327    -0.88500
H841        H  0.02734539  0.35243959  0.25223274     0.35600
H842        H  0.03860211  0.31964868  0.22833169     0.40700
H843        H  0.96713708  0.37841602  0.10416872     0.40300
H844        H  0.95536620  0.41117975  0.12764277     0.35200
C845        C  0.14751387  0.66822461  0.23180163    -0.26600
C846        C  0.14478614  0.64040209  0.25152700    -0.14600
C847        C  0.16284290  0.63971233  0.28169654     0.36000
C848        C  0.17972933  0.66802889  0.29328251    -0.26000
C849        C  0.17842970  0.69708938  0.27563432    -0.15200
C850        C  0.16425616  0.69656182  0.24338635     0.37100
N851        N  0.16466046  0.72481736  0.22273166    -0.89500
H852        H  0.13440841  0.66872435  0.20825125     0.18200
H853        H  0.19082408  0.66822334  0.31791250     0.18200
N854        N  0.16206628  0.61179003  0.30254984    -0.88500
H855        H  0.17657493  0.71846396  0.20013313     0.35600
H856        H  0.17917483  0.74382048  0.23330525     0.40700
H857        H  0.17283901  0.59238447  0.28932818     0.40300
H858        H  0.13731554  0.60552504  0.30831069     0.35200
C859        C  0.96528732  0.61776014  0.24475395    -0.26600
C860        C  0.96220118  0.64883302  0.23144864    -0.14600
C861        C  0.98978963  0.66370864  0.21517754     0.36000
C862        C  0.02041743  0.64810351  0.21445637    -0.26000
C863        C  0.02439652  0.61829009  0.23037032    -0.15200
C864        C  0.99616174  0.60262236  0.24490699     0.37100
N865        N  0.99896062  0.57240382  0.26171834    -0.89500
H866        H  0.94422460  0.60618045  0.25735026     0.18200
H867        H  0.04160832  0.65980577  0.20221549     0.18200
N868        N  0.98678483  0.69495558  0.20013070    -0.88500
H869        H  0.99122502  0.57592847  0.28664231     0.35600
H870        H  0.98267180  0.55526870  0.25037250     0.40700
H871        H  0.97002876  0.69199429  0.18040054     0.40300
H872        H  0.00948675  0.70272365  0.18957007     0.35200
C873        C  0.08631450  0.50502102  0.25206338    -0.26600
C874        C  0.10234437  0.52556933  0.22904365    -0.14600
C875        C  0.11939370  0.51211391  0.20124376     0.36000
C876        C  0.11846992  0.47820945  0.19566737    -0.26000
C877        C  0.10040872  0.45781150  0.21742148    -0.15200
C878        C  0.08536019  0.47112106  0.24662039     0.37100
N879        N  0.06827239  0.45015460  0.26991720    -0.89500
H880        H  0.07346106  0.51560974  0.27360374     0.18200
H881        H  0.13010759  0.46799989  0.17324343     0.18200
N882        N  0.13584694  0.53295288  0.17762761    -0.88500
H883        H  0.05837075  0.46382461  0.28997281     0.35600
H884        H  0.08590890  0.43504205  0.27998351     0.40700
H885        H  0.12515459  0.52843878  0.15415788     0.40300
H886        H  0.16080038  0.52652443  0.17598854     0.35200
C887        C  0.31886387  0.92486500  0.60420529    -0.26600
C888        C  0.30007951  0.90861914  0.62892964    -0.14600
C889        C  0.27185053  0.92401693  0.64329440     0.36000
C890        C  0.26391464  0.95537163  0.63293458    -0.26000
C891        C  0.28224721  0.97101269  0.60750328    -0.15200
C892        C  0.31031922  0.95574355  0.59334174     0.37100
N893        N  0.33015472  0.97173158  0.56804035    -0.89500
H894        H  0.34038252  0.91320908  0.59308969     0.18200
H895        H  0.24229528  0.96703358  0.64381188     0.18200
N896        N  0.24977934  0.90839169  0.66702158    -0.88500
H897        H  0.34974815  0.95710149  0.55998745     0.35600
H898        H  0.34090478  0.99283641  0.57904525     0.40700
H899        H  0.25618593  0.88442277  0.67117979     0.40300
H900        H  0.22615252  0.90675907  0.65636860     0.35200
C901        C  0.40696395  0.68052129  0.74200673    -0.26600
C902        C  0.38691017  0.68663226  0.71444676    -0.14600
C903        C  0.38192336  0.66183902  0.68947238     0.36000
C904        C  0.40008872  0.63311354  0.69067868    -0.26000
C905        C  0.42278312  0.62881401  0.71636181    -0.15200
C906        C  0.42515799  0.65187282  0.74304795     0.37100
N907        N  0.44790695  0.64699893  0.76984258    -0.89500
H908        H  0.41041759  0.69912124  0.76153362     0.18200
H909        H  0.39837147  0.61515372  0.67030878     0.18200
N910        N  0.35948721  0.66646774  0.66233962    -0.88500
H911        H  0.44718986  0.66642486  0.78731804     0.35600
H912        H  0.43971691  0.62614036  0.78238657     0.40700
H913        H  0.33553653  0.66811624  0.67265327     0.40300
H914        H  0.35906969  0.64614086  0.64595243     0.35200
C915        C  0.25812691  0.86838761  0.77024418    -0.26600
C916        C  0.28875113  0.85541870  0.77914425    -0.14600
C917        C  0.30081083  0.86148627  0.81192673     0.36000
C918        C  0.28253141  0.88078789  0.83458444    -0.26000
C919        C  0.25277823  0.89459437  0.82495041    -0.15200
C920        C  0.24029865  0.88805392  0.79274927     0.37100
N921        N  0.20969845  0.90175926  0.78274192    -0.89500
H922        H  0.24805449  0.86380740  0.74545323     0.18200
H923        H  0.29242093  0.88629054  0.85930637     0.18200
N924        N  0.33197324  0.84911868  0.82210837    -0.88500
H925        H  0.19339531  0.88258725  0.77563903     0.35600
H926        H  0.21459373  0.91587372  0.76169750     0.40700
H927        H  0.32763425  0.83485501  0.84314426     0.40300
H928        H  0.34745636  0.86893209  0.82924464     0.35200
C929        C  0.63995545  0.28882675  0.89288394    -0.26600
C930        C  0.66697419  0.27235966  0.87869129    -0.14600
C931        C  0.67983886  0.24560894  0.89513449     0.36000
C932        C  0.66623229  0.23646124  0.92623892    -0.26000
C933        C  0.63988981  0.25372000  0.94093577    -0.15200
C934        C  0.62635300  0.27975191  0.92383229     0.37100
N935        N  0.60008974  0.29825656  0.93882018    -0.89500
H936        H  0.63042885  0.30987828  0.88064855     0.18200
H937        H  0.67691608  0.21658010  0.93943975     0.18200
N938        N  0.70789151  0.22900224  0.88129791    -0.88500
H939        H  0.58005025  0.29741880  0.92236809     0.35600
H940        H  0.60847000  0.32254375  0.94143975     0.40700
H941        H  0.70117480  0.20431870  0.87809087     0.40300
H942        H  0.72712352  0.23087631  0.89868316     0.35200
C943        C  0.57916594  0.37923722  0.74406486    -0.26600
C944        C  0.55645161  0.36296419  0.72260334    -0.14600
C945        C  0.56803720  0.33951161  0.69927045     0.36000
C946        C  0.60163821  0.33131012  0.69898396    -0.26000
C947        C  0.62433741  0.34646408  0.72141448    -0.15200
C948        C  0.61295156  0.37133666  0.74361077     0.37100
N949        N  0.63526421  0.38811975  0.76629052    -0.89500
H950        H  0.57051403  0.39778201  0.76171248     0.18200
H951        H  0.60993199  0.31286816  0.68105103     0.18200
N952        N  0.54581815  0.32444442  0.67535376    -0.88500
H953        H  0.62646317  0.38460446  0.79074195     0.35600
H954        H  0.63471368  0.41306885  0.76160402     0.40700
H955        H  0.54608681  0.29919777  0.67830781     0.40300
H956        H  0.55497301  0.32948175  0.65133456     0.35200
C957        C  0.72783908  0.37560376  0.62560265    -0.26600
C958        C  0.74757479  0.37499058  0.65439510    -0.14600
C959        C  0.77387523  0.39837514  0.65813164     0.36000
C960        C  0.77889438  0.42246979  0.63408877    -0.26000
C961        C  0.75826161  0.42384030  0.60611473    -0.15200
C962        C  0.73271814  0.39975131  0.60169425     0.37100
N963        N  0.71006408  0.40028448  0.57431464    -0.89500
H964        H  0.70733009  0.35815692  0.62236957     0.18200
H965        H  0.79860246  0.44074281  0.63771072     0.18200
N966        N  0.79541578  0.39802504  0.68643227    -0.88500
H967        H  0.72331518  0.39695940  0.55186962     0.35600
H968        H  0.69900517  0.42306332  0.57436473     0.40700
H969        H  0.79388177  0.42050281  0.69928044     0.40300
H970        H  0.81982948  0.39569678  0.67753695     0.35200
C971        C  0.82597632  0.29557041  0.84294094    -0.26600
C972        C  0.79964674  0.27543471  0.83090409    -0.14600
C973        C  0.80076370  0.24131532  0.83572264     0.36000
C974        C  0.82587842  0.22887087  0.85542112    -0.26000
C975        C  0.85018272  0.24969037  0.86993364    -0.15200
C976        C  0.85126526  0.28299269  0.86231766     0.37100
N977        N  0.87685698  0.30422083  0.87627512    -0.89500
H978        H  0.82574540  0.32159523  0.83889458     0.18200
H979        H  0.82522171  0.20316347  0.86112663     0.18200
N980        N  0.77573457  0.21900733  0.82287480    -0.88500
H981        H  0.87382246  0.32821052  0.86885770     0.35600
H982        H  0.89961168  0.29678590  0.86612694     0.40700
H983        H  0.77566954  0.22045117  0.79675982     0.40300
H984        H  0.75257813  0.22589336  0.83234142     0.35200
C985        C  0.75893036  0.46558835  0.10827673    -0.26600
C986        C  0.77628823  0.47422163  0.07897967    -0.22200
C987        C  0.79524899  0.45076706  0.06151643     0.36000
C988        C  0.79807341  0.41956908  0.07465485    -0.26000
C989        C  0.78272551  0.41182731  0.10529366    -0.15200
C990        C  0.76211493  0.43475395  0.12169075     0.37100
N991        N  0.74455208  0.42749586  0.15221049    -0.89500
H992        H  0.74392755  0.48342856  0.12155363     0.18200
H993        H  0.81437368  0.40228325  0.06224822     0.18200
N994        N  0.81341062  0.45924994  0.03173384    -0.88500
H995        H  0.76167386  0.42314085  0.17091788     0.35600
H996        H  0.72995225  0.40631191  0.14809798     0.40700
H997        H  0.80584219  0.44311574  0.01241224     0.40300
H998        H  0.83866654  0.45578935  0.03591770     0.35200
C999        C  0.77697048  0.61499323  0.11673574    -0.26600
C1000       C  0.79989303  0.59125932  0.10752627    -0.14600
C1001       C  0.83088131  0.59113558  0.12347456     0.36000
C1002       C  0.83773378  0.61371337  0.14971092    -0.26000
C1003       C  0.81388685  0.63633806  0.16047070    -0.15200
C1004       C  0.78354813  0.63740796  0.14295002     0.37100
N1005       N  0.75887742  0.66070398  0.15205445    -0.89500
H1006       H  0.75312883  0.61531462  0.10439342     0.18200
H1007       H  0.86117960  0.61246477  0.16262647     0.18200
N1008       N  0.85526350  0.56796081  0.11323801    -0.88500
H1009       H  0.73695572  0.64793031  0.15852634     0.35600
H1010       H  0.75413335  0.67443232  0.13101260     0.40700
H1011       H  0.87683040  0.58087101  0.10595242     0.40300
H1012       H  0.86095214  0.55423140  0.13401560     0.35200
C1013       C  0.70077235  0.61826747  0.79649084    -0.26600
C1014       C  0.73028050  0.61797538  0.81456382    -0.14600
C1015       C  0.75725997  0.63869976  0.80567601     0.36000
C1016       C  0.75509161  0.65749573  0.77713396    -0.26000
C1017       C  0.72642811  0.65578415  0.75723884    -0.15200
C1018       C  0.69857989  0.63690412  0.76788022     0.37100
N1019       N  0.66877771  0.63477047  0.74866432    -0.89500
H1020       H  0.68012388  0.60206431  0.80323164     0.18200
H1021       H  0.77648604  0.67234566  0.76963077     0.18200
N1022       N  0.78761010  0.63971343  0.82411440    -0.88500
H1023       H  0.64913302  0.64146458  0.76457625     0.35600
H1024       H  0.66465073  0.61039432  0.74112737     0.40700
H1025       H  0.79716592  0.61625737  0.82395540     0.40300
H1026       H  0.78207488  0.64662002  0.84893028     0.35200
C1027       C  0.76760412  0.47951472  0.83456749    -0.26600
C1028       C  0.74142716  0.49931821  0.82567301    -0.14600
C1029       C  0.71657175  0.48666720  0.80384311     0.36000
C1030       C  0.71802045  0.45440583  0.79210230    -0.26000
C1031       C  0.74356781  0.43416736  0.80186551    -0.15200
C1032       C  0.76904332  0.44703662  0.82279855     0.37100
N1033       N  0.79602664  0.42707245  0.83228010    -0.89500
H1034       H  0.78673057  0.48936830  0.85115131     0.18200
H1035       H  0.69810402  0.44469041  0.77640225     0.18200
N1036       N  0.68853809  0.50523926  0.79473905    -0.88500
H1037       H  0.81241406  0.44020861  0.84803808     0.35600
H1038       H  0.80948679  0.42110766  0.81047477     0.40700
H1039       H  0.69671466  0.52488196  0.78041058     0.40300
H1040       H  0.67688334  0.51410090  0.81658177     0.35200
C1041       C  0.71685578  0.55383372  0.94870233    -0.26600
C1042       C  0.74002127  0.57002989  0.92798642    -0.14600
C1043       C  0.76983149  0.58312876  0.94171151     0.36000
C1044       C  0.77684615  0.57797223  0.97525637    -0.26000
C1045       C  0.75484190  0.55963633  0.99534167    -0.15200
C1046       C  0.72400419  0.54865511  0.98236722     0.37100
N1047       N  0.70023207  0.53181387  0.00316196    -0.89500
H1048       H  0.69392592  0.54375769  0.93824866     0.18200
H1049       H  0.80054716  0.58667433  0.98512859     0.18200
N1050       N  0.79442015  0.59972648  0.92162464    -0.88500
H1051       H  0.69521381  0.50881872  0.99214250     0.35600
H1052       H  0.67821700  0.54480446  0.00346375     0.40700
H1053       H  0.78390555  0.62047231  0.91200640     0.40300
H1054       H  0.80139983  0.58425753  0.90165499     0.35200
C1055       C  0.32717195  0.73418976  0.36295523    -0.26600
C1056       C  0.32878445  0.76151134  0.34226725    -0.14600
C1057       C  0.35930683  0.77992444  0.34059491     0.36000
C1058       C  0.38595565  0.77182706  0.36061128    -0.26000
C1059       C  0.38353996  0.74572816  0.38253829    -0.15200
C1060       C  0.35416786  0.72612589  0.38284206     0.37100
N1061       N  0.35165741  0.69793538  0.40328203    -0.89500
H1062       H  0.30461457  0.71918947  0.36429482     0.18200
H1063       H  0.40833299  0.78716045  0.36006015     0.18200
N1064       N  0.36424221  0.80740096  0.31946652    -0.88500
H1065       H  0.34674106  0.67756652  0.38763678     0.35600
H1066       H  0.33134460  0.70067843  0.41965007     0.40700
H1067       H  0.34791653  0.82568327  0.32692487     0.40300
H1068       H  0.35994842  0.79999483  0.29459182     0.35200
C1069       C  0.42548689  0.77071926  0.51906119    -0.26600
C1070       C  0.41796499  0.74153428  0.50130229    -0.14600
C1071       C  0.39897439  0.71665441  0.51714232     0.36000
C1072       C  0.38629431  0.72224100  0.54956907    -0.26000
C1073       C  0.39246452  0.75210652  0.56645465    -0.15200
C1074       C  0.41261934  0.77627330  0.55140206     0.37100
N1075       N  0.41831119  0.80723190  0.56813880    -0.89500
H1076       H  0.43985099  0.78999631  0.50705836     0.18200
H1077       H  0.37056278  0.70370962  0.56113697     0.18200
N1078       N  0.39218637  0.68566448  0.50089486    -0.88500
H1079       H  0.40916303  0.82534524  0.55305720     0.35600
H1080       H  0.44399726  0.81118685  0.57024310     0.40700
H1081       H  0.41486212  0.67549062  0.49383173     0.40300
H1082       H  0.37847327  0.68916949  0.47931283     0.35200
C1083       C  0.69892213  0.76999813  0.47145561    -0.26600
C1084       C  0.67337548  0.79236015  0.46774285    -0.14600
C1085       C  0.65979560  0.80769171  0.49655897     0.36000
C1086       C  0.66789294  0.79669738  0.52829505    -0.26000
C1087       C  0.69022138  0.77127474  0.53173050    -0.15200
C1088       C  0.70769779  0.75962102  0.50324592     0.37100
N1089       N  0.73240924  0.73538469  0.50613622    -0.89500
H1090       H  0.71017273  0.75827568  0.44962880     0.18200
H1091       H  0.65528638  0.80685218  0.55017521     0.18200
N1092       N  0.63685988  0.83353842  0.49357101    -0.88500
H1093       H  0.75465496  0.74463531  0.49581685     0.35600
H1094       H  0.72496781  0.71479570  0.49183431     0.40700
H1095       H  0.64668153  0.85413376  0.50634204     0.40300
H1096       H  0.61459611  0.82662877  0.50557691     0.35200
C1097       C  0.71250316  0.79521123  0.33825850    -0.26600
C1098       C  0.68530685  0.77473983  0.34714850    -0.14600
C1099       C  0.68582290  0.74134586  0.33736250     0.36000
C1100       C  0.71378767  0.72903443  0.32099095    -0.26000
C1101       C  0.74233383  0.74871876  0.31502594    -0.15200
C1102       C  0.74105174  0.78249469  0.32253610     0.37100
N1103       N  0.76887516  0.80381129  0.31528018    -0.89500
H1104       H  0.71256753  0.82079378  0.34583342     0.18200
H1105       H  0.71375041  0.70313698  0.31484618     0.18200
N1106       N  0.65972451  0.71855150  0.34625413    -0.88500
H1107       H  0.77666123  0.81505624  0.33776804     0.35600
H1108       H  0.76081011  0.82196766  0.29961720     0.40700
H1109       H  0.63783251  0.72492800  0.33461199     0.40300
H1110       H  0.65625775  0.71930448  0.37227676     0.35200
C1111       C  0.56379787  0.74215951  0.41890216    -0.26600
C1112       C  0.57239172  0.77046336  0.40132430    -0.14600
C1113       C  0.54691143  0.78861763  0.38736148     0.36000
C1114       C  0.51350291  0.77904637  0.39262891    -0.26000
C1115       C  0.50491431  0.75169259  0.41181549    -0.15200
C1116       C  0.53043969  0.73262592  0.42416090     0.37100
N1117       N  0.52253839  0.70367682  0.44230962    -0.89500
H1118       H  0.58316987  0.72785331  0.42946053     0.18200
H1119       H  0.49413307  0.79398896  0.38306422     0.18200
N1120       N  0.55418809  0.81766229  0.36919796    -0.88500
H1121       H  0.53315086  0.70626251  0.46604941     0.35600
H1122       H  0.53363638  0.68401902  0.42974144     0.40700
H1123       H  0.56891378  0.81153447  0.34832351     0.40300
H1124       H  0.56783129  0.83391290  0.38466177     0.35200
C1125       C  0.15194112  0.72342191  0.46280413    -0.26600
C1126       C  0.16660788  0.74566142  0.48581146    -0.14600
C1127       C  0.19569598  0.76352559  0.47634739     0.36000
C1128       C  0.20745708  0.76097164  0.44312192    -0.26000
C1129       C  0.19016414  0.74185528  0.41907419    -0.15200
C1130       C  0.16357143  0.72107174  0.42956018     0.37100
N1131       N  0.14750899  0.69879118  0.40607866    -0.89500
H1132       H  0.13040965  0.70885151  0.47048288     0.18200
H1133       H  0.22821363  0.77651799  0.43533275     0.18200
N1134       N  0.21183660  0.78590044  0.49968793    -0.88500
H1135       H  0.12817212  0.68563958  0.41776863     0.35600
H1136       H  0.16506110  0.68179966  0.39815892     0.40700
H1137       H  0.19542479  0.80467990  0.50525249     0.40300
H1138       H  0.23303222  0.79676887  0.48879487     0.35200
C1139       C  0.19633211  0.74358066  0.61578739    -0.26600
C1140       C  0.17432312  0.76807991  0.60756971    -0.14600
C1141       C  0.18074417  0.80034237  0.61918004     0.36000
C1142       C  0.21094322  0.80824118  0.63498330    -0.26000
C1143       C  0.23499413  0.78450797  0.63846574    -0.15200
C1144       C  0.22686753  0.75146098  0.63078599     0.37100
N1145       N  0.24993031  0.72580517  0.63538262    -0.89500
H1146       H  0.19141775  0.71866322  0.60709569     0.18200
H1147       H  0.21711920  0.83362334  0.64096485     0.18200
N1148       N  0.15849583  0.82573375  0.61157586    -0.88500
H1149       H  0.23870650  0.70920540  0.65176855     0.35600
H1150       H  0.27147635  0.73461152  0.64726074     0.40700
H1151       H  0.15138241  0.83723000  0.63414213     0.40300
H1152       H  0.17147884  0.84291325  0.59714366     0.35200
C1153       C  0.84707425  0.80297417  0.56947470    -0.26600
C1154       C  0.87696992  0.78604821  0.56972448    -0.14600
C1155       C  0.87967451  0.75927056  0.59073810     0.36000
C1156       C  0.85219368  0.74870766  0.60952423    -0.26000
C1157       C  0.82126430  0.76358043  0.60714705    -0.15200
C1158       C  0.81915078  0.79223291  0.58828569     0.37100
N1159       N  0.78862149  0.80959045  0.58723615    -0.89500
H1160       H  0.84513918  0.82371987  0.55340703     0.18200
H1161       H  0.85480378  0.72721951  0.62439872     0.18200
N1162       N  0.90950665  0.74094679  0.59102436    -0.88500
H1163       H  0.79119042  0.82954262  0.57152926     0.35600
H1164       H  0.78402857  0.81917402  0.61135088     0.40700
H1165       H  0.91794327  0.74072675  0.61568904     0.40300
H1166       H  0.90364479  0.71690427  0.58339758     0.35200
C1167       C  0.87579614  0.74122781  0.41035097    -0.26600
C1168       C  0.89222546  0.75610870  0.38337599    -0.14600
C1169       C  0.91671022  0.78065066  0.38980191     0.36000
C1170       C  0.92444344  0.78989634  0.42298609    -0.26000
C1171       C  0.90857698  0.77457814  0.45014705    -0.15200
C1172       C  0.88424613  0.74967747  0.44357124     0.37100
N1173       N  0.86935739  0.73163407  0.47041811    -0.89500
H1174       H  0.85765502  0.72165971  0.40562945     0.18200
H1175       H  0.94315297  0.80897015  0.42751815     0.18200
N1176       N  0.93378324  0.79623470  0.36257245    -0.88500
H1177       H  0.87470184  0.70700472  0.46650823     0.35600
H1178       H  0.84356668  0.73390663  0.46930206     0.40700
H1179       H  0.95926447  0.79267217  0.36508643     0.40300
H1180       H  0.92976130  0.82128835  0.36471635     0.35200
C1181       C  0.00599212  0.76607499  0.56054486    -0.26600
C1182       C  0.99682010  0.78928975  0.53726612    -0.14600
C1183       C  0.02177464  0.80844310  0.52163340     0.36000
C1184       C  0.05535972  0.80251401  0.52745516    -0.26000
C1185       C  0.06459303  0.77786820  0.54900080    -0.15200
C1186       C  0.03967222  0.76022721  0.56648866     0.37100
N1187       N  0.04844007  0.73524131  0.58891099    -0.89500
H1188       H  0.98699275  0.75129744  0.57291316     0.18200
H1189       H  0.07437892  0.81662154  0.51433022     0.18200
N1190       N  0.01303010  0.83382452  0.49967664    -0.88500
H1191       H  0.03745235  0.71320849  0.58038319     0.35600
H1192       H  0.03823530  0.74095885  0.61250865     0.40700
H1193       H  0.02393073  0.82899786  0.47619672     0.40300
H1194       H  0.02332434  0.85582411  0.50913381     0.35200
C1195       C  0.46492282  0.14850612  0.78048072    -0.26600
C1196       C  0.44121128  0.13853663  0.75648500    -0.14600
C1197       C  0.45173763  0.12182302  0.72712399     0.36000
C1198       C  0.48537192  0.11476744  0.72243086    -0.26000
C1199       C  0.50901051  0.12345645  0.74687057    -0.15200
C1200       C  0.49859350  0.14077633  0.77620105     0.37100
N1201       N  0.52110120  0.14914130  0.80280068    -0.89500
H1202       H  0.45699791  0.16099049  0.80337015     0.18200
H1203       H  0.49295102  0.10148569  0.69987387     0.18200
N1204       N  0.42821291  0.11183972  0.70197123    -0.88500
H1205       H  0.53954063  0.16517007  0.79380119     0.35600
H1206       H  0.53228101  0.12787714  0.81038777     0.40700
H1207       H  0.42926192  0.08651203  0.69860249     0.40300
H1208       H  0.43557583  0.12252475  0.67945477     0.35200
C1209       C  0.64336565  0.15316262  0.76758592    -0.26600
C1210       C  0.63258909  0.14058261  0.73656201    -0.14600
C1211       C  0.64644459  0.15325388  0.70697946     0.36000
C1212       C  0.66816751  0.18066176  0.70883832    -0.26000
C1213       C  0.67641238  0.19568719  0.73995167    -0.15200
C1214       C  0.66513285  0.18031112  0.76972335     0.37100
N1215       N  0.67325281  0.19271401  0.80255352    -0.89500
H1216       H  0.63307282  0.14306240  0.79045193     0.18200
H1217       H  0.67715943  0.19122997  0.68569716     0.18200
N1218       N  0.63726381  0.13933069  0.67502211    -0.88500
H1219       H  0.66386414  0.21609008  0.80562766     0.35600
H1220       H  0.69910722  0.19354534  0.80499865     0.40700
H1221       H  0.65898325  0.13201592  0.66260292     0.40300
H1222       H  0.62677548  0.15756370  0.66105332     0.35200
C1223       C  0.64372523  0.85377399  0.66853884    -0.26600
C1224       C  0.62616010  0.84923873  0.69876545    -0.14600
C1225       C  0.63077409  0.82066267  0.71689126     0.36000
C1226       C  0.64870390  0.79509390  0.70205439    -0.26000
C1227       C  0.66295007  0.79818633  0.67004059    -0.15200
C1228       C  0.66216836  0.82834125  0.65402928     0.37100
N1229       N  0.67737325  0.83212272  0.62164123    -0.89500
H1230       H  0.64053176  0.87578193  0.65460396     0.18200
H1231       H  0.64977521  0.77197248  0.71450202     0.18200
N1232       N  0.61519692  0.81700720  0.74926155    -0.88500
H1233       H  0.69446784  0.85175556  0.62322822     0.35600
H1234       H  0.65890145  0.83812378  0.60485536     0.40700
H1235       H  0.62567607  0.83487940  0.76537023     0.40300
H1236       H  0.62069611  0.79444103  0.75913648     0.35200
C1237       C  0.49445784  0.84211350  0.68418242    -0.26600
C1238       C  0.50450321  0.85767106  0.71417374    -0.14600
C1239       C  0.48364341  0.85550641  0.74290916     0.36000
C1240       C  0.45323734  0.83791611  0.74066680    -0.26000
C1241       C  0.44287261  0.82230004  0.71050525    -0.15200
C1242       C  0.46391035  0.82486368  0.68174775     0.37100
N1243       N  0.45444043  0.81017076  0.65003314    -0.89500
H1244       H  0.51059210  0.84376888  0.66226765     0.18200
H1245       H  0.43764510  0.83645715  0.76296067     0.18200
N1246       N  0.49248871  0.87029196  0.77478462    -0.88500
H1247       H  0.47374288  0.81240979  0.63235635     0.35600
H1248       H  0.43486105  0.82354555  0.64097250     0.40700
H1249       H  0.51570023  0.88222008  0.77390056     0.40300
H1250       H  0.49456927  0.85155124  0.79183916     0.35200
C1251       C  0.59574610  0.97429558  0.74334883    -0.26600
C1252       C  0.57648241  0.95946403  0.71779256    -0.14600
C1253       C  0.55955981  0.97915418  0.69559606     0.36000
C1254       C  0.56154352  0.01318681  0.69966571    -0.26000
C1255       C  0.58003292  0.02803715  0.72575063    -0.15200
C1256       C  0.59726386  0.00842476  0.74775318     0.37100
N1257       N  0.61482781  0.02300466  0.77556541    -0.89500
H1258       H  0.60855756  0.95929146  0.76073445     0.18200
H1259       H  0.54802622  0.02811992  0.68275885     0.18200
N1260       N  0.54031968  0.96461341  0.66889701    -0.88500
H1261       H  0.63958471  0.01596172  0.77378718     0.35600
H1262       H  0.60452208  0.01355859  0.79759272     0.40700
H1263       H  0.54969624  0.97354255  0.64625433     0.40300
H1264       H  0.51582408  0.97221581  0.67183619     0.35200
loop_ 
_geom_bond_atom_site_label_1 
_geom_bond_atom_site_label_2 
_geom_bond_distance 
_geom_bond_site_symmetry_2 
_ccdc_geom_bond_type 
C1            C2   1.403       .  A
C1            C6   1.403       .  A
C1         C1224   1.479       .  S
C2            C3   1.407       .  A
C2            H7   1.084       .  S
C3            C4   1.408       .  A
C3         C1252   1.480       .  S
C4            C5   1.402       .  A
C4            H8   1.084       .  S
C5            C6   1.396       .  A
C5         C1238   1.481       .  S
C6            H9   1.085       .  S
C10          C11   1.408       .  A
C10          C15   1.405       .  A
C10        C1210   1.477       .  S
C11          C12   1.403       .  A
C11          H16   1.083       .  S
C12          C13   1.401       .  A
C12        C1199   1.486       .  S
C13          C14   1.401       .  A
C13          H17   1.085       .  S
C14          C15   1.406       .  A
C14        C1255   1.479       .  S
C15          H18   1.084       .  S
C19          C20   1.401       .  A
C19          C24   1.403       .  A
C19        C1154   1.478       .  S
C20          C21   1.402       .  A
C20          H25   1.083       .  S
C21          C22   1.408       .  A
C21        C1171   1.491       .  S
C22          C23   1.408       .  A
C22          H26   1.084       .  S
C23          C24   1.402       .  A
C23        C1182   1.485       .  S
C24          H27   1.084       .  S
C28          C29   1.408       .  A
C28          C33   1.403       .  A
C28        C1140   1.478       .  S
C29          C30   1.408       .  A
C29          H34   1.083       .  S
C30          C31   1.405       .  A
C30        C1185   1.483       .  S
C31          C32   1.402       .  A
C31          H35   1.084       .  S
C32          C33   1.394       .  A
C32        C1126   1.482       .  S
C33          H36   1.084       .  S
C37          C38   1.402       .  A
C37          C42   1.410       .  A
C37        C1098   1.483       .  S
C38          C39   1.397       .  A
C38          H43   1.084       .  S
C39          C40   1.403       .  A
C39        C1084   1.484       .  S
C40          C41   1.402       .  A
C40          H44   1.084       .  S
C41          C42   1.406       .  A
C41        C1112   1.484       .  S
C42          H45   1.082       .  S
C46          C47   1.409       .  A
C46          C51   1.403       .  A
C46        C1059   1.488       .  S
C47          C48   1.407       .  A
C47          H52   1.083       .  S
C48          C49   1.405       .  A
C48        C1115   1.487       .  S
C49          C50   1.400       .  A
C49          H53   1.084       .  S
C50          C51   1.400       .  A
C50        C1070   1.476       .  S
C51          H54   1.084       .  S
C55          C56   1.398       .  A
C55          C60   1.398       .  A
C55        C1014   1.461       .  S
C56          C57   1.402       .  A
C56          H61   1.083       .  S
C57          C58   1.402       .  A
C57        C1042   1.468       .  S
C58          C59   1.398       .  A
C58          H62   1.085       .  S
C59          C60   1.393       .  A
C59        C1028   1.473       .  S
C60          H63   1.084       .  S
C64          C65   1.399       .  A
C64          C69   1.400       .  A
C64        C1000   1.474       .  S
C65          C66   1.400       .  A
C65          H70   1.084       .  S
C66          C67   1.405       .  A
C66        C1045   1.474   1_554  S
C67          C68   1.400       .  A
C67          H71   1.084       .  S
C68          C69   1.402       .  A
C68         C986   1.475       .  S
C69          H72   1.084       .  S
O73         Ni79   1.936       .  S
O73          C94   1.276       .  A
O74         Ni97   1.901       .  S
O74          C83   1.264       .  A
O75         Ni79   1.922       .  S
O75         Ni97   1.915       .  S
O75         Ni91   1.931       .  S
O75          H98   0.966       .  S
C76         C930   1.467       .  S
C76          O93   1.279       .  A
C76          O85   1.275       .  A
O77         Ni96   1.918       .  S
O77          C83   1.267       .  A
O78         Ni96   1.902       .  S
O78          C80   1.269       .  A
Ni79         O82   1.946       .  S
Ni79         O84   1.901       .  S
C80         C972   1.486       .  S
C80          O90   1.272       .  A
O81         Ni97   1.894       .  S
O81          C87   1.265       .  A
O82          C87   1.277       .  A
C83        C1031   1.475       .  S
O84          C86   1.269       .  A
O85         Ni96   1.910       .  S
C86         C947   1.488       .  S
C86          O92   1.275       .  A
C87         C958   1.489       .  S
H88          O89   0.966       .  S
O89         Ni97   1.896       .  S
O89         Ni91   1.894       .  S
O89         Ni96   1.902       .  S
O90         Ni91   1.932       .  S
Ni91         O95   1.903       .  S
Ni91         O93   1.930       .  S
O92         Ni97   1.941       .  S
C94        C1213   1.493       .  S
C94          O95   1.268       .  A
O99        Ni105   1.917       .  S
O99         C120   1.264       .  A
O100       Ni123   1.882       .  S
O100        C109   1.264       .  A
O101       Ni105   1.906       .  S
O101       Ni123   1.893       .  S
O101       Ni117   1.903       .  S
O101        H124   0.967       .  S
C102        C902   1.482       .  S
C102        O119   1.268       .  A
C102        O111   1.276       .  A
O103       Ni122   1.932       .  S
O103        C109   1.272       .  A
O104       Ni122   1.915       .  S
O104        C106   1.271       .  A
Ni105       O108   1.918       .  S
Ni105       O110   1.898       .  S
C106       C1241   1.498       .  S
C106        O116   1.271       .  A
O107       Ni123   1.929       .  S
O107        C113   1.281       .  A
O108        C113   1.277       .  A
C109        C916   1.480       .  S
O110        C112   1.265       .  A
O111       Ni122   1.934       .  S
C112       C1143   1.464       .  S
C112        O118   1.265       .  A
C113        C888   1.482       .  S
H114        O115   0.966       .  S
O115       Ni123   1.923       .  S
O115       Ni117   1.911       .  S
O115       Ni122   1.924       .  S
O116       Ni117   1.923       .  S
Ni117       O121   1.908       .  S
Ni117       O119   1.896       .  S
O118       Ni123   1.921       .  S
C120       C1073   1.461       .  S
C120        O121   1.263       .  A
C125        C126   1.405       .  A
C125        C130   1.402       .  A
C125        C846   1.481       .  S
C126        C127   1.404       .  A
C126        H131   1.084       .  S
C127        C128   1.400       .  A
C127        C863   1.491       .  S
C128        C129   1.403       .  A
C128        H132   1.083       .  S
C129        C130   1.402       .  A
C129        C874   1.469       .  S
C130        H133   1.082       .  S
C134        C135   1.404       .  A
C134        C139   1.402       .  A
C134        C818   1.473       .  S
C135        C136   1.395       .  A
C135        H140   1.084       .  S
C136        C137   1.398       .  A
C136        C835   1.473       .  S
C137        C138   1.403       .  A
C137        H141   1.084       .  S
C138        C139   1.401       .  A
C138        C877   1.473       .  S
C139        H142   1.084       .  S
O143       Ni149   1.923       .  S
O143        C164   1.269       .  A
O144       Ni167   1.922       .  S
O144        C153   1.270       .  A
O145       Ni149   1.899       .  S
O145       Ni167   1.901       .  S
O145       Ni161   1.912       .  S
O145        H168   0.966       .  S
C146       C1003   1.485       .  S
C146        O163   1.278       .  A
C146        O155   1.274       .  A
O147       Ni166   1.912       .  S
O147        C153   1.268       .  A
O148       Ni166   1.914       .  S
O148        C150   1.269       .  A
Ni149       O152   1.922       .  S
Ni149       O154   1.902       .  S
C150        C790   1.495       .  S
C150        O160   1.270       .  A
O151       Ni167   1.931       .  S
O151        C157   1.282       .  A
O152        C157   1.279       .  A
C153       C1101   1.488       .  S
O154        C156   1.267       .  A
O155       Ni166   1.909       .  S
C156        C804   1.478       .  S
C156        O162   1.273       .  A
C157       C1168   1.476       .  S
H158        O159   0.966       .  S
O159       Ni167   1.922       .  S
O159       Ni161   1.907       .  S
O159       Ni166   1.907       .  S
O160       Ni161   1.926       .  S
Ni161       O165   1.910       .  S
Ni161       O163   1.923       .  S
O162       Ni167   1.938       .  S
C164        C860   1.477       .  S
C164        O165   1.267       .  A
C169        C170   1.402       .  A
C169        C174   1.403       .  A
C169        C975   1.475       .  S
C170        C171   1.405       .  A
C170        H175   1.084       .  S
C171        C172   1.404       .  A
C171        C776   1.475       .  S
C172        C173   1.400       .  A
C172        H176   1.084       .  S
C173        C174   1.401       .  A
C173        C762   1.483       .  S
C174        H177   1.084       .  S
C178        C179   1.404       .  A
C178        C183   1.402       .  A
C178        C748   1.476       .  S
C179        C180   1.403       .  A
C179        H184   1.084       .  S
C180        C181   1.398       .  A
C180        C737   1.478       .  S
C181        C182   1.402       .  A
C181        H185   1.084       .  S
C182        C183   1.405       .  A
C182        C779   1.475       .  S
C183        H186   1.083       .  S
O187       Ni193   1.909       .  S
O187        C208   1.263       .  A
O188       Ni211   1.920       .  S
O188        C197   1.275       .  A
O189       Ni193   1.891       .  S
O189       Ni211   1.892       .  S
O189       Ni205   1.897       .  S
O189        H212   0.966       .  S
C190        C692   1.487       .  S
C190        O207   1.268       .  A
C190        O199   1.276       .  A
O191       Ni210   1.929       .  S
O191        C197   1.276       .  A
O192       Ni210   1.907       .  S
O192        C194   1.271       .  A
Ni193       O196   1.898       .  S
Ni193       O198   1.894       .  S
C194        C765   1.494       .  S
C194        O204   1.276       .  A
O195       Ni211   1.946       .  S
O195        C201   1.286       .  A
O196        C201   1.275       .  A
C197        C706   1.500       .  S
O198        C200   1.264       .  A
O199       Ni210   1.942       .  S
C200        C723   1.475       .  S
C200        O206   1.275       .  A
C201        C832   1.481       .  S
H202        O203   0.967       .  S
O203       Ni211   1.935       .  S
O203       Ni205   1.917       .  S
O203       Ni210   1.910       .  S
O204       Ni205   1.944       .  S
Ni205       O209   1.918       .  S
Ni205       O207   1.898       .  S
O206       Ni211   1.946       .  S
C208        C989   1.466       .  S
C208        O209   1.266       .  A
C213        C214   1.401       .  A
C213        C218   1.400   1_554  A
C213        C678   1.472       .  S
C214        C215   1.404       .  A
C214        H219   1.083       .  S
C215        C216   1.408       .  A
C215        C653   1.485       .  S
C216        C217   1.405   1_554  A
C216        H220   1.083   1_554  S
C217        C218   1.403       .  A
C217        C664   1.489       .  S
C218        H221   1.084       .  S
C222        C223   1.404       .  A
C222        C227   1.405       .  A
C222        C695   1.479       .  S
C223        C224   1.404       .  A
C223        H228   1.084       .  S
C224        C225   1.401   1_554  A
C224        C681   1.473       .  S
C225        C226   1.399       .  A
C225        H229   1.084       .  S
C226        C227   1.401   1_556  A
C226        C933   1.476       .  S
C227        H230   1.084   1_554  S
C231        C232   1.393       .  A
C231        C236   1.394       .  A
C231        C919   1.467       .  S
C232        C233   1.401       .  A
C232        H237   1.084       .  S
C233        C234   1.412       .  A
C233        C636   1.482       .  S
C234        C235   1.410       .  A
C234        H238   1.083       .  S
C235        C236   1.401       .  A
C235        C625   1.490   1_565  S
C236        H239   1.083       .  S
C240        C241   1.399       .  A
C240        C245   1.403       .  A
C240        C594   1.467       .  S
C241        C242   1.393       .  A
C241        H246   1.085       .  S
C242        C243   1.398       .  A
C242        C608   1.473       .  S
C243        C244   1.402       .  A
C243        H247   1.085       .  S
C244        C245   1.406       .  A
C244        C639   1.472       .  S
C245        H248   1.083       .  S
O249       Ni255   1.934       .  S
O249        C270   1.271       .  A
O250       Ni273   1.913       .  S
O250        C259   1.268       .  A
O251       Ni255   1.929       .  S
O251       Ni273   1.919       .  S
O251       Ni267   1.912       .  S
O251        H274   0.967       .  S
C252        C622   1.469       .  S
C252        O269   1.263       .  A
C252        O261   1.272       .  A
O253       Ni272   1.927       .  S
O253        C259   1.271       .  A
O254       Ni272   1.895       .  S
O254        C256   1.268       .  A
Ni255       O258   1.936       .  S
Ni255       O260   1.906       .  S
C256        C580   1.484       .  S
C256        O266   1.281       .  A
O257       Ni273   1.902       .  S
O257        C263   1.267       .  A
O258        C263   1.275       .  A
C259       C1196   1.480       .  S
O260        C262   1.270       .  A
O261       Ni272   1.939       .  S
C262        C667   1.493       .  S
C262        O268   1.271       .  A
C263        C566   1.485       .  S
H264        O265   0.965       .  S
O265       Ni273   1.914       .  S
O265       Ni267   1.909       .  S
O265       Ni272   1.915       .  S
O266       Ni267   1.966       .  S
Ni267       O271   1.902       .  S
Ni267       O269   1.901       .  S
O268       Ni273   1.931       .  S
C270        C751   1.494       .  S
C270        O271   1.266       .  A
C275        C276   1.409       .  A
C275        C280   1.403       .  A
C275        C538   1.484       .  S
C276        C277   1.406       .  A
C276        H281   1.084       .  S
C277        C278   1.407       .  A
C277        C552   1.489       .  S
C278        C279   1.404   1_545  A
C278        H282   1.084   1_545  S
C279        C280   1.399   1_565  A
C279        C524   1.482       .  S
C280        H283   1.084       .  S
C284        C285   1.406       .  A
C284        C289   1.410       .  A
C284        C583   1.482       .  S
C285        C286   1.399       .  A
C285        H290   1.084       .  S
C286        C287   1.402       .  A
C286        C891   1.486   1_545  S
C287        C288   1.404       .  A
C287        H291   1.084   1_545  S
C288        C289   1.410       .  A
C288        C555   1.486       .  S
C289        H292   1.083       .  S
O293       Ni299   1.903       .  S
O293        C314   1.268       .  A
O294       Ni317   1.907       .  S
O294        C303   1.270       .  A
O295       Ni299   1.907       .  S
O295       Ni317   1.908       .  S
O295       Ni311   1.923       .  S
O295        H318   0.967       .  S
C296        C821   1.481       .  S
C296        O313   1.268       .  A
C296        O305   1.275       .  A
O297       Ni316   1.926       .  S
O297        C303   1.272       .  A
O298       Ni316   1.897       .  S
O298        C300   1.265       .  A
Ni299       O302   1.914       .  S
Ni299       O304   1.885       .  S
C300        C513   1.489       .  S
C300        O310   1.277       .  A
O301       Ni317   1.915       .  S
O301        C307   1.264       .  A
O302        C307   1.260       .  A
C303        C541   1.491       .  S
O304        C306   1.271       .  A
O305       Ni316   1.927       .  S
C306        C650   1.475       .  S
C306        O312   1.290       .  A
C307        C611   1.470       .  S
H308        O309   0.966       .  S
O309       Ni317   1.903       .  S
O309       Ni311   1.914       .  S
O309       Ni316   1.912       .  S
O310       Ni311   1.944       .  S
Ni311       O315   1.923       .  S
Ni311       O313   1.898       .  S
O312       Ni317   1.982       .  S
C314        C734   1.471       .  S
C314        O315   1.271       .  A
C319        C320   1.408       .  A
C319        C324   1.398       .  A
C319        C807   1.482       .  S
C320        C321   1.415       .  A
C320        H325   1.083       .  S
C321        C322   1.409   1_655  A
C321        C496   1.487       .  S
C322        C323   1.399       .  A
C322        H326   1.083       .  S
C323        C324   1.397   1_455  A
C323        C482   1.482       .  S
C324        H327   1.085       .  S
C328        C329   1.411       .  A
C328        C333   1.409       .  A
C328        C709   1.497       .  S
C329        C330   1.405       .  A
C329        H334   1.083       .  S
C330        C331   1.400   1_655  A
C330        C499   1.480       .  S
C331        C332   1.403       .  A
C331        H335   1.084       .  S
C332        C333   1.406   1_455  A
C332        C510   1.490       .  S
C333        H336   1.083       .  S
O337       Ni343   1.927       .  S
O337        C358   1.273       .  A
O338       Ni361   1.911       .  S
O338        C347   1.272       .  A
O339       Ni343   1.901       .  S
O339       Ni361   1.907       .  S
O339       Ni355   1.905       .  S
O339        H362   0.966       .  S
C340        C597   1.488       .  S
C340        O357   1.272       .  A
C340        O349   1.278       .  A
O341       Ni360   1.929       .  S
O341        C347   1.272       .  A
O342       Ni360   1.915       .  S
O342        C344   1.269       .  A
Ni343       O346   1.931       .  S
Ni343       O348   1.899       .  S
C344        C527   1.492       .  S
C344        O354   1.271       .  A
O345       Ni361   1.910       .  S
O345        C351   1.273       .  A
O346        C351   1.272       .  A
C347       C1056   1.495       .  S
O348        C350   1.269       .  A
O349       Ni360   1.926       .  S
C350        C849   1.469       .  S
C350        O356   1.278       .  A
C351       C1129   1.480       .  S
H352        O353   0.965       .  S
O353       Ni361   1.906       .  S
O353       Ni355   1.902       .  S
O353       Ni360   1.903       .  S
O354       Ni355   1.918       .  S
Ni355       O359   1.903       .  S
Ni355       O357   1.906       .  S
O356       Ni361   1.954       .  S
C358        C485   1.487       .  S
C358        O359   1.268       .  A
C363        C364   1.404       .  A
C363        C368   1.405       .  A
C363        C569   1.478       .  S
C364        C365   1.405       .  A
C364        H369   1.084       .  S
C365        C366   1.398       .  A
C365        C944   1.480       .  S
C366        C367   1.401       .  A
C366        H370   1.084       .  S
C367        C368   1.401       .  A
C367        C471   1.474       .  S
C368        H371   1.084       .  S
C372        C373   1.398       .  A
C372        C377   1.403       .  A
C372        C905   1.471       .  S
C373        C374   1.393       .  A
C373        H378   1.085       .  S
C374        C375   1.397       .  A
C374        C454   1.472       .  S
C375        C376   1.408       .  A
C375        H379   1.084       .  S
C376        C377   1.408       .  A
C376        C468   1.479       .  S
C377        H380   1.082       .  S
C381        C382   1.408       .  A
C381        C386   1.406       .  A
C381        C720   1.486       .  S
C382        C383   1.411       .  A
C382        H387   1.083       .  S
C383        C384   1.408       .  A
C383        C440   1.493       .  S
C384        C385   1.403       .  A
C384        H388   1.084       .  S
C385        C386   1.403       .  A
C385        C793   1.489       .  S
C386        H389   1.084       .  S
C390        C391   1.404       .  A
C390        C395   1.405       .  A
C390        C961   1.485       .  S
C391        C392   1.405       .  A
C391        H396   1.083       .  S
C392        C393   1.410       .  A
C392        C443   1.490       .  S
C393        C394   1.409       .  A
C393        H397   1.083       .  S
C394        C395   1.406       .  A
C394        C426   1.498       .  S
C395        H398   1.083       .  S
O399       Ni405   1.922       .  S
O399        C420   1.269       .  A
O400       Ni423   1.901       .  S
O400        C409   1.266       .  A
O401       Ni405   1.916       .  S
O401       Ni423   1.915       .  S
O401       Ni417   1.931       .  S
O401        H424   0.966       .  S
C402       C1017   1.475       .  S
C402        O419   1.269       .  A
C402        O411   1.275       .  A
O403       Ni422   1.921       .  S
O403        C409   1.273       .  A
O404       Ni422   1.911       .  S
O404        C406   1.269       .  A
Ni405       O408   1.933       .  S
Ni405       O410   1.899       .  S
C406        C429   1.496       .  S
C406        O416   1.275       .  A
O407       Ni423   1.903       .  S
O407        C413   1.264       .  A
O408        C413   1.270       .  A
C409       C1157   1.486       .  S
O410        C412   1.272       .  A
O411       Ni422   1.926       .  S
C412       C1227   1.469       .  S
C412        O418   1.280       .  A
C413       C1087   1.476       .  S
H414        O415   0.967       .  S
O415       Ni423   1.894       .  S
O415       Ni417   1.897       .  S
O415       Ni422   1.909       .  S
O416       Ni417   1.945       .  S
Ni417       O421   1.899       .  S
Ni417       O419   1.897       .  S
O418       Ni423   1.955       .  S
C420        C457   1.471       .  S
C420        O421   1.264       .  A
C425        C426   1.405       .  A
C425        C430   1.408       .  A
C425        H432   1.084       .  S
C426        C427   1.414       .  A
C427        C428   1.407       .  A
C427        N434   1.432       .  S
C428        C429   1.406       .  A
C428        H433   1.084       .  S
C429        C430   1.415       .  A
C430        N431   1.432       .  S
N431        H435   1.046       .  S
N431        H436   1.046       .  S
N434        H437   1.045       .  S
N434        H438   1.046       .  S
C439        C440   1.406       .  A
C439        C444   1.406       .  A
C439        H446   1.084       .  S
C440        C441   1.414       .  A
C441        C442   1.412       .  A
C441        N448   1.438       .  S
C442        C443   1.406       .  A
C442        H447   1.084       .  S
C443        C444   1.410       .  A
C444        N445   1.438       .  S
N445        H449   1.046       .  S
N445        H450   1.046       .  S
N448        H451   1.046       .  S
N448        H452   1.046       .  S
C453        C454   1.401       .  A
C453        C458   1.403       .  A
C453        H460   1.084       .  S
C454        C455   1.409       .  A
C455        C456   1.405       .  A
C455        N462   1.437       .  S
C456        C457   1.402       .  A
C456        H461   1.084       .  S
C457        C458   1.410       .  A
C458        N459   1.437       .  S
N459        H463   1.046       .  S
N459        H464   1.045       .  S
N462        H465   1.045       .  S
N462        H466   1.046       .  S
C467        C468   1.403       .  A
C467        C472   1.394       .  A
C467        H474   1.084       .  S
C468        C469   1.416       .  A
C469        C470   1.401       .  A
C469        N476   1.432       .  S
C470        C471   1.402       .  A
C470        H475   1.084       .  S
C471        C472   1.411       .  A
C472        N473   1.433       .  S
N473        H477   1.046       .  S
N473        H478   1.044       .  S
N476        H479   1.044       .  S
N476        H480   1.045       .  S
C481        C482   1.402       .  A
C481        C486   1.401       .  A
C481        H488   1.084       .  S
C482        C483   1.407       .  A
C483        C484   1.405       .  A
C483        N490   1.432       .  S
C484        C485   1.408       .  A
C484        H489   1.082       .  S
C485        C486   1.417       .  A
C486        N487   1.439       .  S
N487        H491   1.046       .  S
N487        H492   1.046       .  S
N490        H493   1.046       .  S
N490        H494   1.046       .  S
C495        C496   1.404       .  A
C495        C500   1.403   1_565  A
C495        H502   1.084       .  S
C496        C497   1.413   1_565  A
C497        C498   1.403       .  A
C497        N504   1.433   1_545  S
C498        C499   1.400       .  A
C498        H503   1.084       .  S
C499        C500   1.414       .  A
C500        N501   1.432       .  S
N501        H505   1.046       .  S
N501        H506   1.045       .  S
N504        H507   1.045       .  S
N504        H508   1.046   1_655  S
C509        C510   1.403       .  A
C509        C514   1.399       .  A
C509        H516   1.084       .  S
C510        C511   1.414       .  A
C511        C512   1.408       .  A
C511        N518   1.438       .  S
C512        C513   1.406       .  A
C512        H517   1.084       .  S
C513        C514   1.422       .  A
C514        N515   1.434       .  S
N515        H519   1.044       .  S
N515        H520   1.046       .  S
N518        H521   1.046       .  S
N518        H522   1.046       .  S
C523        C524   1.403       .  A
C523        C528   1.410       .  A
C523        H530   1.084       .  S
C524        C525   1.405       .  A
C525        C526   1.400       .  A
C525        N532   1.433       .  S
C526        C527   1.408       .  A
C526        H531   1.084       .  S
C527        C528   1.420       .  A
C528        N529   1.438       .  S
N529        H533   1.046       .  S
N529        H534   1.046       .  S
N532        H535   1.045       .  S
N532        H536   1.046       .  S
C537        C538   1.405       .  A
C537        C542   1.410       .  A
C537        H544   1.084       .  S
C538        C539   1.406       .  A
C539        C540   1.401       .  A
C539        N546   1.433       .  S
C540        C541   1.410       .  A
C540        H545   1.084       .  S
C541        C542   1.414       .  A
C542        N543   1.437       .  S
N543        H547   1.046       .  S
N543        H548   1.045       .  S
N546        H549   1.046       .  S
N546        H550   1.045       .  S
C551        C552   1.405       .  A
C551        C556   1.412       .  A
C551        H558   1.084       .  S
C552        C553   1.412       .  A
C553        C554   1.406       .  A
C553        N560   1.438       .  S
C554        C555   1.403       .  A
C554        H559   1.084       .  S
C555        C556   1.412       .  A
C556        N557   1.438       .  S
N557        H561   1.046       .  S
N557        H562   1.046       .  S
N560        H563   1.046       .  S
N560        H564   1.046   1_545  S
C565        C566   1.407       .  A
C565        C570   1.397       .  A
C565        H572   1.084       .  S
C566        C567   1.418       .  A
C567        C568   1.402       .  A
C567        N574   1.432       .  S
C568        C569   1.402       .  A
C568        H573   1.084       .  S
C569        C570   1.411       .  A
C570        N571   1.433       .  S
N571        H575   1.044       .  S
N571        H576   1.046       .  S
N574        H577   1.046       .  S
N574        H578   1.045       .  S
C579        C580   1.404       .  A
C579        C584   1.404       .  A
C579        H586   1.084       .  S
C580        C581   1.414       .  A
C581        C582   1.407       .  A
C581        N588   1.438       .  S
C582        C583   1.401       .  A
C582        H587   1.084       .  S
C583        C584   1.414       .  A
C584        N585   1.433       .  S
N585        H589   1.044       .  S
N585        H590   1.046       .  S
N588        H591   1.046       .  S
N588        H592   1.046       .  S
C593        C594   1.398       .  A
C593        C598   1.399       .  A
C593        H600   1.085       .  S
C594        C595   1.412       .  A
C595        C596   1.400       .  A
C595        N602   1.438       .  S
C596        C597   1.408       .  A
C596        H601   1.083       .  S
C597        C598   1.417       .  A
C598        N599   1.433       .  S
N599        H603   1.045       .  S
N599        H604   1.045       .  S
N602        H605   1.044       .  S
N602        H606   1.046       .  S
C607        C608   1.402   1_545  A
C607        C612   1.397       .  A
C607        H614   1.084   1_545  S
C608        C609   1.419   1_565  A
C609        C610   1.401       .  A
C609        N616   1.440   1_545  S
C610        C611   1.402       .  A
C610        H615   1.084       .  S
C611        C612   1.407       .  A
C612        N613   1.433       .  S
N613        H617   1.046       .  S
N613        H618   1.046       .  S
N616        H619   1.042       .  S
N616        H620   1.046   1_565  S
C621        C622   1.398       .  A
C621        C626   1.401       .  A
C621        H628   1.084       .  S
C622        C623   1.407       .  A
C623        C624   1.404       .  A
C623        N630   1.432       .  S
C624        C625   1.407       .  A
C624        H629   1.083       .  S
C625        C626   1.416       .  A
C626        N627   1.433   1_545  S
N627        H631   1.046       .  S
N627        H632   1.045   1_565  S
N630        H633   1.046       .  S
N630        H634   1.046       .  S
C635        C636   1.403       .  A
C635        C640   1.402       .  A
C635        H642   1.084       .  S
C636        C637   1.415       .  A
C637        C638   1.400       .  A
C637        N644   1.433       .  S
C638        C639   1.399   1_556  A
C638        H643   1.084   1_556  S
C639        C640   1.407   1_554  A
C640        N641   1.432   1_556  S
N641        H645   1.045   1_554  S
N641        H646   1.045       .  S
N644        H647   1.046       .  S
N644        H648   1.046       .  S
C649        C650   1.403       .  A
C649        C654   1.408       .  A
C649        H656   1.084       .  S
C650        C651   1.410       .  A
C651        C652   1.400       .  A
C651        N658   1.434       .  S
C652        C653   1.403       .  A
C652        H657   1.084       .  S
C653        C654   1.412       .  A
C654        N655   1.432       .  S
N655        H659   1.046       .  S
N655        H660   1.045       .  S
N658        H661   1.046       .  S
N658        H662   1.045       .  S
C663        C664   1.402       .  A
C663        C668   1.397       .  A
C663        H670   1.084       .  S
C664        C665   1.410       .  A
C665        C666   1.405       .  A
C665        N672   1.432       .  S
C666        C667   1.410       .  A
C666        H671   1.084       .  S
C667        C668   1.423       .  A
C668        N669   1.433       .  S
N669        H673   1.045       .  S
N669        H674   1.045       .  S
N672        H675   1.046       .  S
N672        H676   1.046       .  S
C677        C678   1.402       .  A
C677        C682   1.403       .  A
C677        H684   1.084       .  S
C678        C679   1.408       .  A
C679        C680   1.397       .  A
C679        N686   1.432       .  S
C680        C681   1.402       .  A
C680        H685   1.084       .  S
C681        C682   1.417       .  A
C682        N683   1.439       .  S
N683        H687   1.046       .  S
N683        H688   1.044       .  S
N686        H689   1.045       .  S
N686        H690   1.046       .  S
C691        C692   1.406       .  A
C691        C696   1.401       .  A
C691        H698   1.084       .  S
C692        C693   1.412       .  A
C693        C694   1.405       .  A
C693        N700   1.432       .  S
C694        C695   1.402       .  A
C694        H699   1.084       .  S
C695        C696   1.417       .  A
C696        N697   1.439       .  S
N697        H701   1.046       .  S
N697        H702   1.043       .  S
N700        H703   1.045       .  S
N700        H704   1.046       .  S
C705        C706   1.410       .  A
C705        C710   1.402       .  A
C705        H712   1.083       .  S
C706        C707   1.414       .  A
C707        C708   1.411       .  A
C707        N714   1.432       .  S
C708        C709   1.410       .  A
C708        H713   1.084       .  S
C709        C710   1.411       .  A
C710        N711   1.433       .  S
N711        H715   1.045       .  S
N711        H716   1.046       .  S
N714        H717   1.046       .  S
N714        H718   1.046       .  S
C719        C720   1.405       .  A
C719        C724   1.405       .  A
C719        H726   1.084       .  S
C720        C721   1.411       .  A
C721        C722   1.407       .  A
C721        N728   1.438       .  S
C722        C723   1.404       .  A
C722        H727   1.084       .  S
C723        C724   1.411       .  A
C724        N725   1.432       .  S
N725        H729   1.046       .  S
N725        H730   1.046       .  S
N728        H731   1.046       .  S
N728        H732   1.046       .  S
C733        C734   1.402       .  A
C733        C738   1.395       .  A
C733        H740   1.084       .  S
C734        C735   1.408       .  A
C735        C736   1.406       .  A
C735        N742   1.431       .  S
C736        C737   1.405   1_554  A
C736        H741   1.084   1_554  S
C737        C738   1.413   1_556  A
C738        N739   1.433   1_554  S
N739        H743   1.045       .  S
N739        H744   1.044       .  S
N742        H745   1.046       .  S
N742        H746   1.045       .  S
C747        C748   1.399       .  A
C747        C752   1.401       .  A
C747        H754   1.084       .  S
C748        C749   1.403       .  A
C749        C750   1.404       .  A
C749        N756   1.432       .  S
C750        C751   1.410       .  A
C750        H755   1.084       .  S
C751        C752   1.423       .  A
C752        N753   1.433       .  S
N753        H757   1.046       .  S
N753        H758   1.044       .  S
N756        H759   1.046       .  S
N756        H760   1.046       .  S
C761        C762   1.404   1_554  A
C761        C766   1.406       .  A
C761        H768   1.084   1_554  S
C762        C763   1.412   1_556  A
C763        C764   1.399       .  A
C763        N770   1.433       .  S
C764        C765   1.409       .  A
C764        H769   1.083       .  S
C765        C766   1.416       .  A
C766        N767   1.433       .  S
N767        H771   1.046       .  S
N767        H772   1.046       .  S
N770        H773   1.043       .  S
N770        H774   1.046   1_554  S
C775        C776   1.401       .  A
C775        C780   1.396   1_655  A
C775        H782   1.084       .  S
C776        C777   1.413       .  A
C777        C778   1.399   1_655  A
C777        N784   1.433       .  S
C778        C779   1.404       .  A
C778        H783   1.084       .  S
C779        C780   1.412       .  A
C780        N781   1.433       .  S
N781        H785   1.044       .  S
N781        H786   1.046       .  S
N784        H787   1.045       .  S
N784        H788   1.044       .  S
C789        C790   1.409       .  A
C789        C794   1.406       .  A
C789        H796   1.084       .  S
C790        C791   1.422       .  A
C791        C792   1.402       .  A
C791        N798   1.433       .  S
C792        C793   1.403       .  A
C792        H797   1.084       .  S
C793        C794   1.408       .  A
C794        N795   1.432       .  S
N795        H799   1.046       .  S
N795        H800   1.045       .  S
N798        H801   1.044       .  S
N798        H802   1.046       .  S
C803        C804   1.403       .  A
C803        C808   1.401       .  A
C803        H810   1.084       .  S
C804        C805   1.412       .  A
C805        C806   1.410       .  A
C805        N812   1.438       .  S
C806        C807   1.403       .  A
C806        H811   1.084       .  S
C807        C808   1.414       .  A
C808        N809   1.433       .  S
N809        H813   1.044       .  S
N809        H814   1.046       .  S
N812        H815   1.045       .  S
N812        H816   1.046       .  S
C817        C818   1.400       .  A
C817        C822   1.393       .  A
C817        H824   1.084       .  S
C818        C819   1.406       .  A
C819        C820   1.401       .  A
C819        N826   1.432       .  S
C820        C821   1.407       .  A
C820        H825   1.084       .  S
C821        C822   1.419       .  A
C822        N823   1.431       .  S
N823        H827   1.045       .  S
N823        H828   1.045       .  S
N826        H829   1.046       .  S
N826        H830   1.046       .  S
C831        C832   1.404       .  A
C831        C836   1.402   1_655  A
C831        H838   1.084       .  S
C832        C833   1.417       .  A
C833        C834   1.397   1_655  A
C833        N840   1.434       .  S
C834        C835   1.397       .  A
C834        H839   1.084       .  S
C835        C836   1.413       .  A
C836        N837   1.432       .  S
N837        H841   1.046       .  S
N837        H842   1.045       .  S
N840        H843   1.046       .  S
N840        H844   1.046       .  S
C845        C846   1.404       .  A
C845        C850   1.398       .  A
C845        H852   1.084       .  S
C846        C847   1.415       .  A
C847        C848   1.400       .  A
C847        N854   1.432       .  S
C848        C849   1.403       .  A
C848        H853   1.084       .  S
C849        C850   1.414       .  A
C850        N851   1.439       .  S
N851        H855   1.046       .  S
N851        H856   1.044       .  S
N854        H857   1.044       .  S
N854        H858   1.045       .  S
C859        C860   1.402       .  A
C859        C864   1.404       .  A
C859        H866   1.084       .  S
C860        C861   1.410       .  A
C861        C862   1.403   1_655  A
C861        N868   1.438       .  S
C862        C863   1.406       .  A
C862        H867   1.083       .  S
C863        C864   1.414   1_455  A
C864        N865   1.432       .  S
N865        H869   1.046       .  S
N865        H870   1.046       .  S
N868        H871   1.045       .  S
N868        H872   1.046   1_655  S
C873        C874   1.401       .  A
C873        C878   1.401       .  A
C873        H880   1.084       .  S
C874        C875   1.405       .  A
C875        C876   1.402       .  A
C875        N882   1.432       .  S
C876        C877   1.403       .  A
C876        H881   1.084       .  S
C877        C878   1.410       .  A
C878        N879   1.438       .  S
N879        H883   1.046       .  S
N879        H884   1.046       .  S
N882        H885   1.046       .  S
N882        H886   1.045       .  S
C887        C888   1.405       .  A
C887        C892   1.402       .  A
C887        H894   1.084       .  S
C888        C889   1.421       .  A
C889        C890   1.407       .  A
C889        N896   1.440       .  S
C890        C891   1.405       .  A
C890        H895   1.084       .  S
C891        C892   1.410       .  A
C892        N893   1.439       .  S
N893        H897   1.046       .  S
N893        H898   1.046       .  S
N896        H899   1.041       .  S
N896        H900   1.046       .  S
C901        C902   1.404       .  A
C901        C906   1.403       .  A
C901        H908   1.083       .  S
C902        C903   1.417       .  A
C903        C904   1.405       .  A
C903        N910   1.438       .  S
C904        C905   1.399       .  A
C904        H909   1.084       .  S
C905        C906   1.408       .  A
C906        N907   1.438       .  S
N907        H911   1.045       .  S
N907        H912   1.046       .  S
N910        H913   1.046       .  S
N910        H914   1.046       .  S
C915        C916   1.408       .  A
C915        C920   1.395       .  A
C915        H922   1.084       .  S
C916        C917   1.414       .  A
C917        C918   1.400       .  A
C917        N924   1.433       .  S
C918        C919   1.400       .  A
C918        H923   1.084       .  S
C919        C920   1.402       .  A
C920        N921   1.433       .  S
N921        H925   1.046       .  S
N921        H926   1.046       .  S
N924        H927   1.046       .  S
N924        H928   1.046       .  S
C929        C930   1.400       .  A
C929        C934   1.399       .  A
C929        H936   1.084       .  S
C930        C931   1.407       .  A
C931        C932   1.405       .  A
C931        N938   1.431       .  S
C932        C933   1.404       .  A
C932        H937   1.084       .  S
C933        C934   1.408       .  A
C934        N935   1.433       .  S
N935        H939   1.045       .  S
N935        H940   1.046       .  S
N938        H941   1.045       .  S
N938        H942   1.046       .  S
C943        C944   1.404       .  A
C943        C948   1.405       .  A
C943        H950   1.084       .  S
C944        C945   1.405       .  A
C945        C946   1.401       .  A
C945        N952   1.432       .  S
C946        C947   1.408       .  A
C946        H951   1.084       .  S
C947        C948   1.415       .  A
C948        N949   1.433       .  S
N949        H953   1.046       .  S
N949        H954   1.046       .  S
N952        H955   1.045       .  S
N952        H956   1.046       .  S
C957        C958   1.406       .  A
C957        C962   1.401       .  A
C957        H964   1.084       .  S
C958        C959   1.415       .  A
C959        C960   1.404       .  A
C959        N966   1.433       .  S
C960        C961   1.403       .  A
C960        H965   1.084       .  S
C961        C962   1.415       .  A
C962        N963   1.433       .  S
N963        H967   1.044       .  S
N963        H968   1.045       .  S
N966        H969   1.046       .  S
N966        H970   1.046       .  S
C971        C972   1.406       .  A
C971        C976   1.403       .  A
C971        H978   1.084       .  S
C972        C973   1.419       .  A
C973        C974   1.403       .  A
C973        N980   1.432       .  S
C974        C975   1.401       .  A
C974        H979   1.084       .  S
C975        C976   1.406       .  A
C976        N977   1.438       .  S
N977        H981   1.045       .  S
N977        H982   1.046       .  S
N980        H983   1.045       .  S
N980        H984   1.044       .  S
C985        C986   1.402       .  A
C985        C990   1.396       .  A
C985        H992   1.084       .  S
C986        C987   1.408       .  A
C987        C988   1.403       .  A
C987        N994   1.432       .  S
C988        C989   1.402       .  A
C988        H993   1.084       .  S
C989        C990   1.412       .  A
C990        N991   1.433       .  S
N991        H995   1.044       .  S
N991        H996   1.046       .  S
N994        H997   1.045       .  S
N994        H998   1.046       .  S
C999       C1000   1.398       .  A
C999       C1004   1.397       .  A
C999       H1006   1.084       .  S
C1000      C1001   1.407       .  A
C1001      C1002   1.404       .  A
C1001      N1008   1.432       .  S
C1002      C1003   1.408       .  A
C1002      H1007   1.084       .  S
C1003      C1004   1.417       .  A
C1004      N1005   1.433       .  S
N1005      H1009   1.046       .  S
N1005      H1010   1.045       .  S
N1008      H1011   1.046       .  S
N1008      H1012   1.046       .  S
C1013      C1014   1.397       .  A
C1013      C1018   1.395       .  A
C1013      H1020   1.085       .  S
C1014      C1015   1.407       .  A
C1015      C1016   1.397       .  A
C1015      N1022   1.433       .  S
C1016      C1017   1.407       .  A
C1016      H1021   1.084       .  S
C1017      C1018   1.411       .  A
C1018      N1019   1.431       .  S
N1019      H1023   1.045       .  S
N1019      H1024   1.046       .  S
N1022      H1025   1.045       .  S
N1022      H1026   1.045       .  S
C1027      C1028   1.402       .  A
C1027      C1032   1.403       .  A
C1027      H1034   1.084       .  S
C1028      C1029   1.413       .  A
C1029      C1030   1.394       .  A
C1029      N1036   1.434       .  S
C1030      C1031   1.404       .  A
C1030      H1035   1.084       .  S
C1031      C1032   1.413       .  A
C1032      N1033   1.438       .  S
N1033      H1037   1.046       .  S
N1033      H1038   1.046       .  S
N1036      H1039   1.043       .  S
N1036      H1040   1.045       .  S
C1041      C1042   1.402       .  A
C1041      C1046   1.400       .  A
C1041      H1048   1.084       .  S
C1042      C1043   1.411       .  A
C1043      C1044   1.394       .  A
C1043      N1050   1.433       .  S
C1044      C1045   1.402       .  A
C1044      H1049   1.084       .  S
C1045      C1046   1.408       .  A
C1046      N1047   1.432   1_556  S
N1047      H1051   1.046   1_554  S
N1047      H1052   1.046       .  S
N1050      H1053   1.045       .  S
N1050      H1054   1.046       .  S
C1055      C1056   1.408       .  A
C1055      C1060   1.405       .  A
C1055      H1062   1.083       .  S
C1056      C1057   1.425       .  A
C1057      C1058   1.397       .  A
C1057      N1064   1.433       .  S
C1058      C1059   1.400       .  A
C1058      H1063   1.084       .  S
C1059      C1060   1.410       .  A
C1060      N1061   1.433       .  S
N1061      H1065   1.046       .  S
N1061      H1066   1.046       .  S
N1064      H1067   1.045       .  S
N1064      H1068   1.045       .  S
C1069      C1070   1.402       .  A
C1069      C1074   1.399       .  A
C1069      H1076   1.084       .  S
C1070      C1071   1.415       .  A
C1071      C1072   1.400       .  A
C1071      N1078   1.432       .  S
C1072      C1073   1.400       .  A
C1072      H1077   1.084       .  S
C1073      C1074   1.405       .  A
C1074      N1075   1.433       .  S
N1075      H1079   1.046       .  S
N1075      H1080   1.045       .  S
N1078      H1081   1.045       .  S
N1078      H1082   1.044       .  S
C1083      C1084   1.408       .  A
C1083      C1088   1.401       .  A
C1083      H1090   1.083       .  S
C1084      C1085   1.407       .  A
C1085      C1086   1.401       .  A
C1085      N1092   1.432       .  S
C1086      C1087   1.405       .  A
C1086      H1091   1.083       .  S
C1087      C1088   1.408       .  A
C1088      N1089   1.433       .  S
N1089      H1093   1.046       .  S
N1089      H1094   1.046       .  S
N1092      H1095   1.046       .  S
N1092      H1096   1.046       .  S
C1097      C1098   1.408       .  A
C1097      C1102   1.407       .  A
C1097      H1104   1.084       .  S
C1098      C1099   1.415       .  A
C1099      C1100   1.393       .  A
C1099      N1106   1.433       .  S
C1100      C1101   1.406       .  A
C1100      H1105   1.084       .  S
C1101      C1102   1.412       .  A
C1102      N1103   1.432       .  S
N1103      H1107   1.046       .  S
N1103      H1108   1.046       .  S
N1106      H1109   1.044       .  S
N1106      H1110   1.045       .  S
C1111      C1112   1.404       .  A
C1111      C1116   1.402       .  A
C1111      H1118   1.084       .  S
C1112      C1113   1.412       .  A
C1113      C1114   1.404       .  A
C1113      N1120   1.432       .  S
C1114      C1115   1.407       .  A
C1114      H1119   1.084       .  S
C1115      C1116   1.409       .  A
C1116      N1117   1.433       .  S
N1117      H1121   1.046       .  S
N1117      H1122   1.045       .  S
N1120      H1123   1.045       .  S
N1120      H1124   1.045       .  S
C1125      C1126   1.401       .  A
C1125      C1130   1.402       .  A
C1125      H1132   1.084       .  S
C1126      C1127   1.415       .  A
C1127      C1128   1.404       .  A
C1127      N1134   1.438       .  S
C1128      C1129   1.402       .  A
C1128      H1133   1.084       .  S
C1129      C1130   1.415       .  A
C1130      N1131   1.438       .  S
N1131      H1135   1.046       .  S
N1131      H1136   1.046       .  S
N1134      H1137   1.045       .  S
N1134      H1138   1.046       .  S
C1139      C1140   1.405       .  A
C1139      C1144   1.399       .  A
C1139      H1146   1.084       .  S
C1140      C1141   1.408       .  A
C1141      C1142   1.402       .  A
C1141      N1148   1.432       .  S
C1142      C1143   1.402       .  A
C1142      H1147   1.085       .  S
C1143      C1144   1.412       .  A
C1144      N1145   1.438       .  S
N1145      H1149   1.046       .  S
N1145      H1150   1.044       .  S
N1148      H1151   1.045       .  S
N1148      H1152   1.046       .  S
C1153      C1154   1.405       .  A
C1153      C1158   1.409       .  A
C1153      H1160   1.084       .  S
C1154      C1155   1.406       .  A
C1155      C1156   1.393       .  A
C1155      N1162   1.433       .  S
C1156      C1157   1.406       .  A
C1156      H1161   1.083       .  S
C1157      C1158   1.417       .  A
C1158      N1159   1.438       .  S
N1159      H1163   1.046       .  S
N1159      H1164   1.046       .  S
N1162      H1165   1.045       .  S
N1162      H1166   1.046       .  S
C1167      C1168   1.400       .  A
C1167      C1172   1.405       .  A
C1167      H1174   1.084       .  S
C1168      C1169   1.410       .  A
C1169      C1170   1.404       .  A
C1169      N1176   1.433       .  S
C1170      C1171   1.404       .  A
C1170      H1175   1.084       .  S
C1171      C1172   1.417       .  A
C1172      N1173   1.433       .  S
N1173      H1177   1.046       .  S
N1173      H1178   1.046       .  S
N1176      H1179   1.046       .  S
N1176      H1180   1.046       .  S
C1181      C1182   1.407   1_455  A
C1181      C1186   1.406       .  A
C1181      H1188   1.084   1_455  S
C1182      C1183   1.407   1_655  A
C1183      C1184   1.402       .  A
C1183      N1190   1.432       .  S
C1184      C1185   1.405       .  A
C1184      H1189   1.084       .  S
C1185      C1186   1.408       .  A
C1186      N1187   1.432       .  S
N1187      H1191   1.046       .  S
N1187      H1192   1.046       .  S
N1190      H1193   1.045       .  S
N1190      H1194   1.046       .  S
C1195      C1196   1.405       .  A
C1195      C1200   1.406       .  A
C1195      H1202   1.084       .  S
C1196      C1197   1.408       .  A
C1197      C1198   1.400       .  A
C1197      N1204   1.432       .  S
C1198      C1199   1.403       .  A
C1198      H1203   1.084       .  S
C1199      C1200   1.417       .  A
C1200      N1201   1.433       .  S
N1201      H1205   1.044       .  S
N1201      H1206   1.046       .  S
N1204      H1207   1.046       .  S
N1204      H1208   1.046       .  S
C1209      C1210   1.398       .  A
C1209      C1214   1.399       .  A
C1209      H1216   1.084       .  S
C1210      C1211   1.404       .  A
C1211      C1212   1.405       .  A
C1211      N1218   1.432       .  S
C1212      C1213   1.411       .  A
C1212      H1217   1.084       .  S
C1213      C1214   1.422       .  A
C1214      N1215   1.431       .  S
N1215      H1219   1.044       .  S
N1215      H1220   1.045       .  S
N1218      H1221   1.046       .  S
N1218      H1222   1.045       .  S
C1223      C1224   1.403       .  A
C1223      C1228   1.404       .  A
C1223      H1230   1.084       .  S
C1224      C1225   1.411       .  A
C1225      C1226   1.403       .  A
C1225      N1232   1.437       .  S
C1226      C1227   1.400       .  A
C1226      H1231   1.084       .  S
C1227      C1228   1.408       .  A
C1228      N1229   1.432       .  S
N1229      H1233   1.045       .  S
N1229      H1234   1.045       .  S
N1232      H1235   1.046       .  S
N1232      H1236   1.046       .  S
C1237      C1238   1.400       .  A
C1237      C1242   1.404       .  A
C1237      H1244   1.084       .  S
C1238      C1239   1.415       .  A
C1239      C1240   1.405       .  A
C1239      N1246   1.439       .  S
C1240      C1241   1.411       .  A
C1240      H1245   1.083       .  S
C1241      C1242   1.421       .  A
C1242      N1243   1.438       .  S
N1243      H1247   1.046       .  S
N1243      H1248   1.046       .  S
N1246      H1249   1.042       .  S
N1246      H1250   1.046       .  S
C1251      C1252   1.404       .  A
C1251      C1256   1.406   1_565  A
C1251      H1258   1.084       .  S
C1252      C1253   1.408       .  A
C1253      C1254   1.401   1_565  A
C1253      N1260   1.432       .  S
C1254      C1255   1.403       .  A
C1254      H1259   1.084       .  S
C1255      C1256   1.408       .  A
C1256      N1257   1.432       .  S
N1257      H1261   1.045       .  S
N1257      H1262   1.046       .  S
N1260      H1263   1.045       .  S
N1260      H1264   1.046       .  S
