geometry optimzed in LAMMPS
_audit_creation_date              2020-11-30 
_audit_creation_method            'lammps2cif' 
_symmetry_space_group_name_H-M    'P1' 
_symmetry_Int_Tables_number       1 
_symmetry_cell_setting            triclinic 
loop_ 
_symmetry_equiv_pos_as_xyz 
  x,y,z 
_cell_length_a                    32.94318264 
_cell_length_b                    34.79927622033088 
_cell_length_c                    44.959248766434904 
_cell_angle_alpha                 87.69896638171834 
_cell_angle_beta                  90.7185185368956 
_cell_angle_gamma                 86.5287575825822 
loop_ 
_atom_site_label 
_atom_site_type_symbol 
_atom_site_fract_x 
_atom_site_fract_y 
_atom_site_fract_z 
_atom_site_charge 
O1          O  0.76006506  0.09344153  0.06918908    -0.79800
O2          O  0.76459108  0.10950494  0.43138464    -0.64400
O3          O  0.77402730  0.06715672  0.01075223    -1.11000
C4          C  0.90200829  0.11354648  0.00642248     1.07100
O5          O  0.82607999  0.08726580  0.41734531    -0.77700
O6          O  0.85669891  0.03119463  0.45610013    -0.65200
Ni7        Ni  0.72852367  0.07846351  0.03570851     1.34900
C8          C  0.85860982  0.01236024  0.48084184     0.85900
O9          O  0.71508700  0.06451651  0.46153618    -0.78200
O10         O  0.69057508  0.06285343  0.00658571    -0.88500
C11         C  0.79074442  0.10285751  0.41139644     0.85400
O12         O  0.72087686  0.13093539  0.02222611    -0.66700
O13         O  0.90501505  0.08492877  0.48144597    -0.86000
C14         C  0.72017934  0.14566674  0.99587190     0.86300
C15         C  0.69166022  0.04461627  0.47744623     1.07800
H16         H  0.81936897  0.12782798  0.47932744     0.39600
O17         O  0.82073187  0.10015129  0.47784910    -1.08600
O18         O  0.85384132  0.04670542  0.01415131    -0.65300
Ni19       Ni  0.82191940  0.09455763  0.01654661     1.26300
O20         O  0.74239864  0.12861099  0.48641547    -0.65500
O21         O  0.86981042  0.12174489  0.02056035    -0.77800
C22         C  0.79728470  0.08811899  0.07678640     0.85700
O23         O  0.82517517  0.08306574  0.05812074    -0.65000
Ni24       Ni  0.86272914  0.08554305  0.45100702     1.27400
Ni25       Ni  0.76799049  0.08281682  0.46929811     1.26100
H26         H  0.78033255  0.03970907  0.01290044     0.40200
O27         O  0.76299444  0.11585437  0.31699955    -0.79800
O28         O  0.76701973  0.10614319  0.17982826    -0.64400
O29         O  0.77676404  0.08030428  0.26245424    -1.11000
C30         C  0.90726554  0.12433148  0.25527365     1.07100
O31         O  0.82951971  0.08300107  0.16956374    -0.77700
O32         O  0.86120134  0.04311949  0.21906935    -0.65200
Ni33       Ni  0.73218741  0.08895480  0.28857003     1.34900
C34         C  0.86356447  0.03367577  0.24666418     0.85900
O35         O  0.71946301  0.06968975  0.21679357    -0.78200
O36         O  0.69660536  0.06217659  0.26333632    -0.88500
C37         C  0.79362861  0.09515201  0.16148691     0.85400
O38         O  0.71234352  0.13706481  0.27090106    -0.66700
O39         O  0.90594456  0.10605755  0.23122793    -0.86000
C40         C  0.71740156  0.15522780  0.24625345     0.86300
C41         C  0.69324569  0.05861415  0.23528646     1.07800
H42         H  0.81821042  0.14365200  0.22130648     0.39600
O43         O  0.82123483  0.11618872  0.22561105    -1.08600
O44         O  0.85661662  0.05772560  0.26669265    -0.65300
Ni45       Ni  0.82588317  0.10645340  0.26757274     1.26300
O46         O  0.74102859  0.14261356  0.22617296    -0.65500
O47         O  0.87579753  0.13181670  0.27074033    -0.77800
C48         C  0.79873931  0.10648335  0.32669585     0.85700
O49         O  0.82740458  0.09720619  0.30943167    -0.65000
Ni50       Ni  0.86466194  0.09449009  0.20242707     1.27400
Ni51       Ni  0.77017851  0.09340001  0.22108753     1.26100
H52         H  0.78321208  0.05285008  0.26406864     0.40200
O53         O  0.57897848  0.33196139  0.41872794    -0.79800
O54         O  0.57759510  0.33315853  0.05842397    -0.64400
O55         O  0.61059400  0.31812795  0.47672150    -1.11000
C56         C  0.53883745  0.20455338  0.49279145     1.07100
O57         O  0.59226676  0.27188890  0.07133471    -0.77700
O58         O  0.61673085  0.22070587  0.03205140    -0.65200
Ni59       Ni  0.59258098  0.36207450  0.45161405     1.34900
C60         C  0.64010180  0.22467990  0.01009276     0.85900
O61         O  0.61926352  0.37495323  0.01888520    -0.78200
O62         O  0.60649944  0.39904706  0.48002255    -0.88500
C63         C  0.58303112  0.30627875  0.07814290     0.85400
O64         O  0.53797891  0.36196841  0.46552858    -0.66700
O65         O  0.53769882  0.20881184  0.01754914    -0.86000
C66         C  0.51851215  0.36982717  0.98906169     0.86300
C67         C  0.61653917  0.40316707  0.99970487     1.07800
H68         H  0.53285692  0.29051630  0.01107242     0.39600
O69         O  0.56151770  0.28305808  0.01303532    -1.08600
O70         O  0.62625814  0.23983998  0.47906451    -0.65300
Ni71       Ni  0.57812318  0.27425859  0.47444537     1.26300
O72         O  0.54168301  0.35977143  0.01092486    -0.65500
O73         O  0.54510766  0.23096183  0.47326109    -0.77800
C74         C  0.58189274  0.29658805  0.41281643     0.85700
O75         O  0.58591460  0.26976204  0.43274377    -0.65000
Ni76       Ni  0.56507803  0.24247023  0.04285926     1.27400
Ni77       Ni  0.59083764  0.32867229  0.01745753     1.26100
H78         H  0.63887487  0.31117860  0.47301569     0.40200
O79         O  0.55861379  0.32894440  0.16916868    -0.79800
O80         O  0.56735728  0.33208823  0.30847570    -0.64400
O81         O  0.59253648  0.32400220  0.22664640    -1.11000
C82         C  0.53027713  0.20356531  0.23723507     1.07100
O83         O  0.58074592  0.27022352  0.32065638    -0.77700
O84         O  0.60612860  0.22156363  0.28004580    -0.65200
Ni85       Ni  0.57207115  0.36420312  0.19933898     1.34900
C86         C  0.63036247  0.22768745  0.25891926     0.85900
O87         O  0.60823206  0.37520019  0.26956920    -0.78200
O88         O  0.58672159  0.40379135  0.22592992    -0.88500
C89         C  0.57423084  0.30489233  0.32777071     0.85400
O90         O  0.51670918  0.36549582  0.21277404    -0.66700
O91         O  0.52741879  0.20917295  0.26493645    -0.86000
C92         C  0.50578054  0.36829058  0.23960740     0.86300
C93         C  0.60475114  0.40429692  0.25128133     1.07800
H94         H  0.52187436  0.29091648  0.25994921     0.39600
O95         O  0.55056401  0.28365276  0.26200037    -1.08600
O96         O  0.62118409  0.24954166  0.23602415    -0.65300
Ni97       Ni  0.56987695  0.27543208  0.22274852     1.26300
O98         O  0.52988423  0.36021799  0.26140360    -0.65500
O99         O  0.54679480  0.22649590  0.21894421    -0.77800
C100        C  0.57681598  0.29693772  0.16297479     0.85700
O101        O  0.58850956  0.27195138  0.18309770    -0.65000
Ni102      Ni  0.55412126  0.24212973  0.29105996     1.27400
Ni103      Ni  0.57957885  0.32925423  0.26727448     1.26100
H104        H  0.62175708  0.32127804  0.22479473     0.40200
O105        O  0.49296596  0.96335442  0.05791805    -0.79800
O106        O  0.47413275  0.97318318  0.41793299    -0.64400
O107        O  0.51093382  0.96751924  0.99868908    -1.11000
C108        C  0.50556566  0.10190067  0.49034709     1.07100
O109        O  0.51589519  0.01860024  0.40511513    -0.77700
O110        O  0.56722591  0.03426471  0.44963573    -0.65200
Ni111      Ni  0.48137648  0.93499084  0.02435457     1.34900
C112        C  0.57999532  0.02636790  0.47605079     0.85900
O113        O  0.49587679  0.91393862  0.45500795    -0.78200
O114        O  0.46756348  0.89997840  0.99503582    -0.88500
C115        C  0.49283369  0.99216818  0.39848560     0.85400
O116        O  0.43358470  0.96652689  0.01497032    -0.66700
O117        O  0.51591507  0.09569718  0.46370261    -0.86000
C118        C  0.41127742  0.96932648  0.49051894     0.86300
C119        C  0.47583272  0.89119797  0.47093354     1.07800
H120        H  0.45621880  0.03236798  0.46155115     0.39600
O121        O  0.48446088  0.02322968  0.46335177    -1.08600
O122        O  0.55520572  0.02980009  0.99821355    -0.65300
Ni123      Ni  0.49852294  0.02223913  0.00188280     1.26300
O124        O  0.43151171  0.96616440  0.46659875    -0.65500
O125        O  0.48726712  0.07669590  0.00281102    -0.77800
C126        C  0.50426489  0.99630605  0.06366857     0.85700
O127        O  0.50914506  0.02243581  0.04382098    -0.65000
Ni128      Ni  0.51466290  0.05462034  0.43649148     1.27400
Ni129      Ni  0.48957453  0.96882481  0.45870336     1.26100
H130        H  0.53971514  0.96073254  0.00093428     0.40200
O131        O  0.48359161  0.96249813  0.30812194    -0.79800
O132        O  0.48444381  0.96563247  0.16618082    -0.64400
O133        O  0.50852758  0.96294818  0.24924195    -1.11000
C134        C  0.50268456  0.09889019  0.23402314     1.07100
O135        O  0.53168570  0.00697976  0.15670816    -0.77700
O136        O  0.57485835  0.03285073  0.20272298    -0.65200
Ni137      Ni  0.47528984  0.93257980  0.27421033     1.34900
C138        C  0.58382757  0.02807255  0.23023393     0.85900
O139        O  0.50231638  0.90749669  0.20575491    -0.78200
O140        O  0.46402936  0.89591737  0.24492883    -0.80500
C141        C  0.50561194  0.98430706  0.14803209     0.85400
O142        O  0.42911275  0.96462372  0.26173389    -0.66700
O143        O  0.51669802  0.09144220  0.20845033    -0.86000
C144        C  0.41424091  0.96449919  0.23549722     0.86300
C145        C  0.48283201  0.88471935  0.22213429     1.07800
H146        H  0.46217092  0.02616954  0.20599424     0.39600
O147        O  0.49013985  0.01731775  0.21002871    -1.08600
O148        O  0.55734005  0.02341568  0.25008953    -0.65300
Ni149      Ni  0.49962829  0.01827490  0.25166955     1.26300
O150        O  0.43678779  0.96009862  0.21275998    -0.65500
O151        O  0.49076797  0.07319813  0.25234678    -0.77800
C152        C  0.49789122  0.99446156  0.31365268     0.85700
O153        O  0.50782561  0.01845235  0.29358734    -0.65000
Ni154      Ni  0.52315234  0.04727182  0.18426683     1.27400
Ni155      Ni  0.49566204  0.96269247  0.20757427     1.26100
H156        H  0.53681297  0.95476445  0.25264641     0.40200
O157        O  0.43535186  0.66939487  0.43145820    -0.79800
O158        O  0.41391271  0.67166013  0.06831712    -0.64400
O159        O  0.39685782  0.67319141  0.48709269    -1.11000
C160        C  0.43082484  0.80005184  0.48510592     1.07100
O161        O  0.41137672  0.73408314  0.07832051    -0.77700
O162        O  0.36013978  0.75839159  0.03272390    -0.65200
Ni163      Ni  0.42134960  0.63399360  0.46311777     1.34900
C164        C  0.34600493  0.76715224  0.00681915     0.85900
O165        O  0.37866399  0.62566274  0.03114740    -0.78200
O166        O  0.40730563  0.59418008  0.49131112    -0.88500
C167        C  0.41297266  0.69866572  0.08640856     0.85400
O168        O  0.47606611  0.63464228  0.47872690    -0.66700
O169        O  0.41970844  0.80162036  0.00935589    -0.86000
C170        C  0.48205050  0.63568773  0.00553778     0.86300
C171        C  0.38325921  0.59672954  0.01464265     1.07800
H172        H  0.46100047  0.71633078  0.02081970     0.39600
O173        O  0.43182109  0.72079059  0.01903970    -1.08600
O174        O  0.36303634  0.74984028  0.48999177    -0.65300
Ni175      Ni  0.41617603  0.72253283  0.47935844     1.26300
O176        O  0.45716405  0.64501028  0.02570283    -0.65500
O177        O  0.43940502  0.77034459  0.47082367    -0.77800
C178        C  0.41365947  0.69844185  0.42117589     0.85700
O179        O  0.39794288  0.72297299  0.43860449    -0.65000
Ni180      Ni  0.41564659  0.76423758  0.04198917     1.27400
Ni181      Ni  0.40489221  0.67338001  0.02643887     1.26100
H182        H  0.36766532  0.67413786  0.48433808     0.40200
O183        O  0.42162890  0.66677278  0.17820700    -0.79800
O184        O  0.42865770  0.65652844  0.31932366    -0.64400
O185        O  0.39480770  0.67071908  0.23720944    -1.11000
C186        C  0.46756556  0.78508864  0.24685681     1.07100
O187        O  0.40282898  0.71545881  0.32588289    -0.77700
O188        O  0.38541366  0.77325034  0.28510651    -0.65200
Ni189      Ni  0.40684606  0.63135581  0.20950350     1.34900
C190        C  0.36243643  0.77104770  0.26240851     0.85900
O191        O  0.38677618  0.61248053  0.28275133    -0.78200
O192        O  0.39117932  0.59072624  0.23663985    -0.88500
C193        C  0.41700117  0.68306476  0.33664693     0.85400
O194        O  0.46323355  0.62382907  0.22000953    -0.66700
O195        O  0.46625942  0.77793537  0.27488196    -0.86000
C196        C  0.48225891  0.62447089  0.24468995     0.86300
C197        C  0.38188483  0.58648803  0.26395456     1.07800
H198        H  0.46795849  0.70175712  0.26998620     0.39600
O199        O  0.43902610  0.70776156  0.27115350    -1.08600
O200        O  0.37092847  0.74823246  0.24153693    -0.65300
Ni201      Ni  0.42070465  0.71886281  0.23150497     1.26300
O202        O  0.46479756  0.63370615  0.26885639    -0.65500
O203        O  0.44900088  0.76626415  0.22743265    -0.77800
C204        C  0.41078134  0.70173067  0.17144873     0.85700
O205        O  0.40296798  0.72627075  0.19101756    -0.65000
Ni206      Ni  0.43425130  0.74604089  0.29956920     1.27400
Ni207      Ni  0.41296204  0.66066886  0.27777184     1.26100
H208        H  0.36564242  0.67580613  0.23712918     0.40200
O209        O  0.23379967  0.89408657  0.09241806    -0.79800
O210        O  0.23340985  0.92140541  0.45554735    -0.64400
O211        O  0.22826051  0.93724151  0.03834967    -1.11000
C212        C  0.09491037  0.90329367  0.02578250     1.07100
O213        O  0.16858649  0.93580634  0.44229567    -0.77700
O214        O  0.14457467  0.97749523  0.49124488    -0.65200
Ni215      Ni  0.26879701  0.92267894  0.06762443     1.34900
C216        C  0.14592291  0.99345340  0.01617174     0.85900
O217        O  0.28156149  0.94676975  0.49812859    -0.78200
O218        O  0.30595136  0.95126818  0.04538226    -0.88500
C219        C  0.20548295  0.92728934  0.43599067     0.85400
O220        O  0.28851852  0.87539048  0.05144805    -0.66700
O221        O  0.09223155  0.91924153  0.50479983    -0.86000
C222        C  0.28133012  0.85738828  0.02813619     0.86300
C223        C  0.30908169  0.94432811  0.51850207     1.07800
H224        H  0.17993088  0.87458516  0.49478332     0.39600
O225        O  0.17770008  0.90147389  0.49949289    -1.08600
O226        O  0.15087165  0.96841651  0.03758369    -0.65300
Ni227      Ni  0.17642335  0.91658767  0.04196828     1.26300
O228        O  0.25841558  0.87298614  0.49668030    -0.65500
O229        O  0.12460018  0.89543888  0.04372219    -0.77800
C230        C  0.20090458  0.90930139  0.10190599     0.85700
O231        O  0.17394094  0.92412132  0.08382984    -0.65000
Ni232      Ni  0.13439876  0.92785534  0.47606132     1.27400
Ni233      Ni  0.23018588  0.92343878  0.49768196     1.26100
H234        H  0.22485985  0.96498798  0.03865290     0.40200
O235        O  0.23224667  0.89856409  0.34513678    -0.79800
O236        O  0.24086589  0.89756639  0.20698336    -0.64400
O237        O  0.22518198  0.93016577  0.28662586    -1.11000
C238        C  0.09431767  0.88776714  0.27665870     1.07100
O239        O  0.17943044  0.92186341  0.19280350    -0.77700
O240        O  0.14487521  0.96478453  0.23420722    -0.65200
Ni241      Ni  0.26612835  0.92329096  0.31671307     1.34900
C242        C  0.14152024  0.97719336  0.26018223     0.85900
O243        O  0.28696657  0.93772950  0.24381762    -0.78200
O244        O  0.30261697  0.94915865  0.29148023    -0.88500
C245        C  0.21420586  0.90681576  0.18680191     0.85400
O246        O  0.28837096  0.87421145  0.30528939    -0.66700
O247        O  0.09828024  0.90345279  0.25084270    -0.86000
C248        C  0.28608787  0.85415323  0.28238023     0.86300
C249        C  0.30925788  0.95186271  0.26368223     1.07800
H250        H  0.18602342  0.86424922  0.25067342     0.39600
O251        O  0.18328975  0.89198114  0.25158982    -1.08600
O252        O  0.14619266  0.95524699  0.28333584    -0.65300
Ni253      Ni  0.17489898  0.90603829  0.29190498     1.26300
O254        O  0.26434446  0.86481954  0.25940325    -0.65500
O255        O  0.12396083  0.88214888  0.29511024    -0.77800
C256        C  0.19723693  0.91229922  0.35209225     0.85700
O257        O  0.16987274  0.91994104  0.33237550    -0.65000
Ni258      Ni  0.14196444  0.91227772  0.22380956     1.27400
Ni259      Ni  0.23544351  0.91365231  0.24721541     1.26100
H260        H  0.21947846  0.95771309  0.28477432     0.40200
O261        O  0.92959011  0.83701006  0.09008546    -0.79800
O262        O  0.91691598  0.83688151  0.45348152    -0.64400
O263        O  0.89770816  0.83335221  0.03232529    -1.11000
C264        C  0.94731352  0.70198949  0.03380113     1.07100
O265        O  0.91165816  0.77623208  0.44017695    -0.77700
O266        O  0.85678522  0.76091006  0.48218760    -0.65200
Ni267      Ni  0.91516817  0.87265506  0.05725770     1.34900
C268        C  0.85089145  0.74852506  0.00845037     0.85900
O269        O  0.88422617  0.88475805  0.49332742    -0.78200
O270        O  0.90051111  0.91234407  0.02722594    -0.88500
C271        C  0.91505381  0.81165581  0.43389075     0.85400
O272        O  0.97125250  0.87206332  0.04600104    -0.66700
O273        O  0.94374646  0.70572423  0.00564959    -0.86000
C274        C  0.98594316  0.86920008  0.02016493     0.86300
C275        C  0.88944743  0.91446750  0.99981498     1.07800
H276        H  0.96012949  0.77850596  0.49879841     0.39600
O277        O  0.93084439  0.77916613  0.50011503    -1.08600
O278        O  0.86514917  0.76301906  0.03168679    -0.65300
Ni279      Ni  0.91784049  0.78157680  0.04201611     1.26300
O280        O  0.96046354  0.85083170  0.50049818    -0.65500
O281        O  0.93878964  0.72925458  0.05121190    -0.77800
C282        C  0.91002833  0.80853158  0.09928396     0.85700
O283        O  0.89841333  0.78374606  0.08162562    -0.65000
Ni284      Ni  0.91047716  0.74225952  0.47422953     1.27400
Ni285      Ni  0.90725859  0.83191889  0.49543056     1.26100
H286        H  0.86832323  0.83473733  0.03237972     0.40200
O287        O  0.92044650  0.84323350  0.34145989    -0.79800
O288        O  0.91733856  0.84817173  0.20053431    -0.64400
O289        O  0.89102042  0.84044038  0.28294212    -1.11000
C290        C  0.95034641  0.71254906  0.27286186     1.07100
O291        O  0.88913424  0.79390804  0.19284758    -0.77700
O292        O  0.86593572  0.74500578  0.23521297    -0.65200
Ni293      Ni  0.91207250  0.87848599  0.30770680     1.34900
C294        C  0.84595629  0.75191865  0.25850295     0.85900
O295        O  0.87863196  0.89582736  0.23666073    -0.78200
O296        O  0.90375163  0.91998742  0.27770977    -0.88500
C297        C  0.90504122  0.82390466  0.18285737     0.85400
O298        O  0.96743432  0.86819489  0.29670869    -0.66700
O299        O  0.94543285  0.71908843  0.24497493    -0.86000
C300        C  0.98028483  0.86940425  0.27024961     0.86300
C301        C  0.88594404  0.92411395  0.25229106     1.07800
H302        H  0.95813180  0.79641695  0.24803561     0.39600
O303        O  0.92893060  0.79508073  0.24808163    -1.08600
O304        O  0.86026797  0.76914036  0.28049403    -0.65300
Ni305      Ni  0.91365350  0.78816358  0.28859203     1.26300
O306        O  0.95687733  0.86658642  0.24777480    -0.65500
O307        O  0.93760701  0.73568297  0.29267314    -0.77800
C308        C  0.90969724  0.80968896  0.34870686     0.85700
O309        O  0.90028343  0.78538563  0.32975546    -0.65000
Ni310      Ni  0.91727263  0.75769388  0.22016356     1.27400
Ni311      Ni  0.90427984  0.84563164  0.24175034     1.26100
H312        H  0.86179897  0.84129710  0.28484094     0.40200
O313        O  0.65748981  0.59970116  0.07616529    -0.79800
O314        O  0.67821163  0.58253500  0.44412350    -0.64400
O315        O  0.69085440  0.57465876  0.02209494    -1.11000
C316        C  0.76396137  0.68565982  0.01599654     1.07100
O317        O  0.74172546  0.59706881  0.43427447    -0.77700
O318        O  0.78756212  0.58400794  0.48702092    -0.65200
Ni319      Ni  0.64972496  0.55917285  0.04890516     1.34900
C320        C  0.78711147  0.58840907  0.99612521     0.85900
O321        O  0.66141105  0.52775581  0.48422865    -0.78200
O322        O  0.64072143  0.51610000  0.02497409    -0.88500
C323        C  0.70628335  0.58846295  0.42586207     0.85400
O324        O  0.60325093  0.58794211  0.03094132    -0.66700
O325        O  0.78028697  0.66346456  0.49464069    -0.86000
C326        C  0.59689533  0.60402742  0.00522986     0.86300
C327        C  0.64485931  0.50859673  0.99758599     1.07800
H328        H  0.69116587  0.64548514  0.48236449     0.39600
O329        O  0.71004332  0.62418961  0.48842659    -1.08600
O330        O  0.76885974  0.59720949  0.02033741    -0.65300
Ni331      Ni  0.71447487  0.62227722  0.02787227     1.26300
O332        O  0.63164331  0.60275952  0.48778112    -0.65500
O333        O  0.73842856  0.67068916  0.03318819    -0.77800
C334        C  0.69201158  0.60679096  0.08699737     0.85700
O335        O  0.72238406  0.61092744  0.06995390    -0.65000
Ni336      Ni  0.75918561  0.62815274  0.46671828     1.27400
Ni337      Ni  0.68500873  0.57644411  0.48587050     1.26100
H338        H  0.71221205  0.55436991  0.02378135     0.40200
O339        O  0.67035167  0.58921275  0.33336024    -0.79800
O340        O  0.65494697  0.59429175  0.19316783    -0.64400
O341        O  0.69034552  0.57224503  0.27433845    -1.11000
C342        C  0.75897117  0.68702582  0.26767775     1.07100
O343        O  0.70861657  0.62606732  0.17918414    -0.77700
O344        O  0.76881333  0.60830488  0.21882244    -0.65200
Ni345      Ni  0.65576892  0.55285004  0.30426025     1.34900
C346        C  0.78235107  0.59214571  0.24306315     0.85900
O347        O  0.65123856  0.53225544  0.23095733    -0.78200
O348        O  0.63991423  0.51344048  0.27860175    -0.88500
C349        C  0.67766191  0.60791168  0.17297310     0.85400
O350        O  0.60803142  0.58449180  0.29343076    -0.66700
O351        O  0.75841364  0.68079003  0.24007274    -0.86000
C352        C  0.59461601  0.59997679  0.26890069     0.86300
C353        C  0.63995545  0.50777317  0.25072107     1.07800
H354        H  0.67025994  0.65234125  0.24186692     0.39600
O355        O  0.69238522  0.63296389  0.24062296    -1.08600
O356        O  0.76554132  0.59722962  0.26807999    -0.65300
Ni357      Ni  0.71374014  0.62013038  0.28040660     1.26300
O358        O  0.61594171  0.60180895  0.24529679    -0.65500
O359        O  0.73810836  0.66837606  0.28623038    -0.77800
C360        C  0.70659347  0.59676008  0.34012768     0.85700
O361        O  0.73150754  0.60511967  0.32000828    -0.65000
Ni362      Ni  0.73069332  0.65120813  0.21213975     1.27400
Ni363      Ni  0.67072898  0.58305285  0.23458650     1.26100
H364        H  0.71215027  0.55255520  0.27306407     0.40200
O365        O  0.08236518  0.22341383  0.43451151    -0.79800
O366        O  0.12763893  0.22381943  0.07070901    -0.64400
O367        O  0.12963699  0.20200570  0.48649300    -1.11000
C368        C  0.01507622  0.12999941  0.51065256     1.07100
O369        O  0.11877674  0.16214950  0.08103803    -0.77700
O370        O  0.10101262  0.10845314  0.03892290    -0.65200
Ni371      Ni  0.12452345  0.24453295  0.45794722     1.34900
C372        C  0.11690753  0.10432024  0.01339117     0.85900
O373        O  0.17568129  0.24826674  0.02532361    -0.78200
O374        O  0.16781906  0.26817660  0.47748513    -0.88500
C375        C  0.12466560  0.19593267  0.08965625     0.85400
O376        O  0.08408004  0.27669628  0.47742811    -0.66700
O377        O  0.02243657  0.13878475  0.03738821    -0.86000
C378        C  0.07528460  0.28794863  0.00719055     0.86300
C379        C  0.18368210  0.27228675  0.00414316     1.07800
H380        H  0.05656623  0.20864168  0.03003509     0.39600
O381        O  0.07969104  0.19049999  0.02820801    -1.08600
O382        O  0.11796054  0.12366691  0.49505984    -0.65300
Ni383      Ni  0.08401302  0.17094914  0.48783131     1.26300
O384        O  0.09470927  0.26644990  0.02671811    -0.65500
O385        O  0.03699544  0.14180898  0.48952893    -0.77800
C386        C  0.08259503  0.18860955  0.42691499     0.85700
O387        O  0.08741245  0.16123615  0.44638071    -0.65000
Ni388      Ni  0.07166957  0.15074324  0.05758630     1.27400
Ni389      Ni  0.12792541  0.21878123  0.02820956     1.26100
H390        H  0.15380765  0.18625339  0.48206492     0.40200
O391        O  0.07373786  0.16137076  0.33499636    -0.79800
O392        O  0.09673333  0.16372710  0.19329904    -0.64400
O393        O  0.10795121  0.16954997  0.27799673    -1.11000
C394        C  0.04085696  0.29316001  0.25802726     1.07100
O395        O  0.12046732  0.22132520  0.18458028    -0.77700
O396        O  0.13555727  0.26941889  0.23080307    -0.65200
Ni397      Ni  0.08431697  0.12954309  0.30164708     1.34900
C398        C  0.14677310  0.26658615  0.25811160     0.85900
O399        O  0.12975047  0.11516679  0.23589496    -0.78200
O400        O  0.09460065  0.09042614  0.27314423    -0.88500
C401        C  0.11097553  0.18864157  0.17549398     0.85400
O402        O  0.03104553  0.14235238  0.28520497    -0.66700
O403        O  0.05415906  0.29167213  0.23145524    -0.86000
C404        C  0.02222044  0.14057829  0.25767712     0.86300
C405        C  0.11876522  0.08650753  0.25148457     1.07800
H406        H  0.04513493  0.21152710  0.23296135     0.39600
O407        O  0.07366108  0.21425224  0.23697449    -1.08600
O408        O  0.12887707  0.24627596  0.27761235    -0.65300
Ni409      Ni  0.07903281  0.21911054  0.27883482     1.26300
O410        O  0.04911976  0.14229775  0.23747080    -0.65500
O411        O  0.04839938  0.26703962  0.27824165    -0.77800
C412        C  0.07822880  0.19618291  0.34108553     0.85700
O413        O  0.08381675  0.22215661  0.32117560    -0.65000
Ni414      Ni  0.08780695  0.25485008  0.20997910     1.27400
Ni415      Ni  0.10180864  0.16504065  0.23572624     1.26100
H416        H  0.13628530  0.17112980  0.28336104     0.40200
O417        O  0.26728738  0.40137052  0.43935722    -0.79800
O418        O  0.27711615  0.42416843  0.07979645    -0.64400
O419        O  0.27772651  0.43594908  0.49587863    -1.11000
C420        C  0.41594897  0.39796345  0.49491874     1.07100
O421        O  0.34279700  0.43461100  0.08602452    -0.77700
O422        O  0.35632964  0.48016733  0.03757970    -0.65200
Ni423      Ni  0.23426556  0.41798881  0.47246790     1.34900
C424        C  0.35167620  0.49298576  0.01088783     0.85900
O425        O  0.21814180  0.45609241  0.04372529    -0.78200
O426        O  0.19529329  0.43408406  0.50147802    -0.88500
C427        C  0.30783014  0.42953955  0.09631897     0.85400
O428        O  0.23752570  0.36647696  0.48916207    -0.66700
O429        O  0.40678369  0.42195722  0.01617414    -0.86000
C430        C  0.23775887  0.36066057  0.01715090     0.86300
C431        C  0.18619503  0.45065745  0.02856878     1.07800
H432        H  0.32471476  0.38164686  0.03236398     0.39600
O433        O  0.32440882  0.40924429  0.02889129    -1.08600
O434        O  0.35195455  0.46591280  0.49083396    -0.65300
Ni435      Ni  0.33094701  0.41497591  0.48779859     1.26300
O436        O  0.24824105  0.38279403  0.03738982    -0.65500
O437        O  0.38369267  0.39201204  0.48072015    -0.77800
C438        C  0.29938795  0.41492971  0.42892272     0.85700
O439        O  0.32615428  0.42736856  0.44595096    -0.65000
Ni440      Ni  0.37057007  0.42799828  0.04926273     1.27400
Ni441      Ni  0.27150736  0.43277915  0.03725369     1.26100
H442        H  0.27673540  0.46366371  0.49306301     0.40200
O443        O  0.23655854  0.40855548  0.18811914    -0.79800
O444        O  0.26219295  0.39095671  0.32576843    -0.64400
O445        O  0.25192493  0.43397103  0.24598086    -1.11000
C446        C  0.39094734  0.39569793  0.24219618     1.07100
O447        O  0.31554224  0.42564106  0.33336227    -0.77700
O448        O  0.34554942  0.46939383  0.28740091    -0.65200
Ni449      Ni  0.20607035  0.42722646  0.22119956     1.34900
C450        C  0.33947101  0.48443999  0.26137528     0.85900
O451        O  0.19930347  0.42626605  0.29559107    -0.78200
O452        O  0.17082979  0.44555209  0.25150228    -0.88500
C453        C  0.28667345  0.40614849  0.34337357     0.85400
O454        O  0.19882401  0.37510122  0.23287185    -0.66700
O455        O  0.39015588  0.40529890  0.26939827    -0.86000
C456        C  0.21346326  0.35121534  0.25278997     0.86300
C457        C  0.16962469  0.44090397  0.27971276     1.07800
H458        H  0.31289984  0.36940131  0.27568410     0.39600
O459        O  0.30904393  0.39717015  0.27525708    -1.08600
O460        O  0.32575233  0.46573245  0.23998337    -0.65300
Ni461      Ni  0.30513214  0.41527874  0.23454408     1.26300
O462        O  0.23696067  0.36056850  0.27399683    -0.65500
O463        O  0.35915576  0.39558718  0.22566807    -0.77800
C464        C  0.26868622  0.42060767  0.17687763     0.85700
O465        O  0.29754734  0.43129464  0.19314192    -0.65000
Ni466      Ni  0.35071421  0.41569224  0.29979672     1.27400
Ni467      Ni  0.25439942  0.41109527  0.28560678     1.26100
H468        H  0.25231416  0.46146055  0.24811246     0.40200
O469        O  0.95890658  0.51568116  0.45235841    -0.79800
O470        O  0.96151906  0.51999159  0.08403495    -0.64400
O471        O  0.99458004  0.51480037  0.50950402    -1.11000
C472        C  0.01205776  0.38518059  0.01433989     1.07100
O473        O  0.00179107  0.46926219  0.10029947    -0.77700
O474        O  0.05867132  0.46103083  0.05541482    -0.65200
Ni475      Ni  0.96999797  0.55193796  0.48201010     1.34900
C476        C  0.07058935  0.46325986  0.02858390     0.85900
O477        O  0.97693961  0.57560843  0.04383585    -0.78200
O478        O  0.97876221  0.59146733  0.50916113    -0.88500
C479        C  0.97847429  0.49909024  0.10490182     0.85400
O480        O  0.91588076  0.54851217  0.49497584    -0.66700
O481        O  0.02462643  0.39426465  0.03998993    -0.86000
C482        C  0.89474623  0.54283880  0.01448214     0.86300
C483        C  0.97943610  0.60098287  0.02265021     1.07800
H484        H  0.94756002  0.45603590  0.04365769     0.39600
O485        O  0.97474209  0.46449894  0.04106875    -1.08600
O486        O  0.05485191  0.45957656  0.50686936    -0.65300
Ni487      Ni  0.99682986  0.46118040  0.50115955     1.26300
O488        O  0.91627392  0.52643724  0.03570951    -0.65500
O489        O  0.00071812  0.40663126  0.49467046    -0.77800
C490        C  0.98369645  0.49007850  0.44263563     0.85700
O491        O  0.00768280  0.46973774  0.45996054    -0.65000
Ni492      Ni  0.01168926  0.43472545  0.06785781     1.27400
Ni493      Ni  0.97467931  0.52009973  0.04310478     1.26100
H494        H  0.02215093  0.52247022  0.51138770     0.40200
O495        O  0.95755889  0.53126339  0.19615301    -0.79800
O496        O  0.94808013  0.52080241  0.33890996    -0.64400
O497        O  0.98235004  0.52853829  0.25773804    -1.11000
C498        C  0.99206114  0.39461542  0.26162746     1.07100
O499        O  0.98802003  0.46859646  0.35130333    -0.77700
O500        O  0.04420112  0.45944936  0.30894729    -0.65200
Ni501      Ni  0.95589176  0.56480762  0.22965352     1.34900
C502        C  0.05758891  0.46602461  0.28304149     0.85900
O503        O  0.96799762  0.57985555  0.30430084    -0.78200
O504        O  0.95238170  0.60426568  0.25843643    -0.88500
C505        C  0.96592299  0.49784474  0.35823856     0.85400
O506        O  0.90293105  0.54992634  0.23886980    -0.66700
O507        O  0.00337480  0.39970694  0.28820854    -0.86000
C508        C  0.88647868  0.54496335  0.26403865     0.86300
C509        C  0.95918530  0.60806010  0.28609657     1.07800
H510        H  0.93317954  0.46502856  0.29227895     0.39600
O511        O  0.96108174  0.47209373  0.29158395    -1.08600
O512        O  0.03523816  0.46744249  0.25980594    -0.65300
Ni513      Ni  0.97813090  0.47494405  0.25111281     1.26300
O514        O  0.90670594  0.53615671  0.28805687    -0.65500
O515        O  0.97424406  0.42119285  0.24536292    -0.77800
C516        C  0.97926386  0.50097207  0.19063462     0.85700
O517        O  0.99498637  0.47882876  0.21104833    -0.65000
Ni518      Ni  0.99392552  0.43719132  0.31772732     1.27400
Ni519      Ni  0.96405824  0.52600396  0.29819105     1.26100
H520        H  0.01059551  0.53452679  0.25824057     0.40200
C521        C  0.98405354  0.48286887  0.41070853    -0.15300
C522        C  0.96237572  0.50525446  0.39020251    -0.30500
H523        H  0.00394375  0.45887058  0.40385688     0.13700
H524        H  0.94300443  0.52969140  0.39688125     0.14300
C525        C  0.97077353  0.51058686  0.13579112    -0.15300
C526        C  0.98646374  0.49002141  0.15960332    -0.30500
H527        H  0.95153199  0.53653546  0.13897516     0.13700
H528        H  0.00549817  0.46395983  0.15634209     0.14300
C529        C  0.13046433  0.45070273  0.29401952    -0.15300
C530        C  0.10086692  0.47044169  0.27804403    -0.30500
H531        H  0.12388970  0.43653627  0.31524226     0.13700
H532        H  0.10811244  0.48402342  0.25671454     0.14300
C533        C  0.14535723  0.46083703  0.04054555    -0.15300
C534        C  0.11372980  0.46699109  0.02132618    -0.30500
H535        H  0.14062914  0.45885932  0.06440370     0.13700
H536        H  0.12832318  0.46979803  0.49841759     0.14300
C537        C  0.28006941  0.40297961  0.37611806    -0.15300
C538        C  0.30641334  0.41592249  0.39622843    -0.30500
H539        H  0.25276850  0.38991739  0.38381224     0.13700
H540        H  0.33393913  0.42852323  0.38844889     0.14300
C541        C  0.27143148  0.42061429  0.14396947    -0.15300
C542        C  0.30453275  0.43031095  0.12916934    -0.30500
H543        H  0.24525083  0.41185776  0.13155763     0.13700
H544        H  0.33095646  0.43834825  0.14167295     0.14300
C545        C  0.01731195  0.32759265  0.26740575    -0.15300
C546        C  0.00361668  0.35707470  0.24903878    -0.30500
H547        H  0.01386966  0.32992720  0.29130960     0.13700
H548        H  0.00515607  0.35489635  0.22504015     0.14300
C549        C  0.17934996  0.29152840  0.26840660    -0.15300
C550        C  0.20178362  0.31107552  0.24877818    -0.30500
H551        H  0.17889047  0.29972215  0.29146774     0.13700
H552        H  0.20063552  0.30285823  0.22571934     0.14300
C553        C  0.05051586  0.32139280  0.01865188    -0.15300
C554        C  0.02769506  0.34787694  0.00196043    -0.30500
H555        H  0.05424417  0.31853768  0.53943317     0.13700
H556        H  0.02331124  0.34369313  0.97835386     0.14300
C557        C  0.21904352  0.29604972  0.00545172    -0.15300
C558        C  0.22285574  0.32252481  0.02597963    -0.30500
H559        H  0.23621855  0.29536337  0.48119715     0.13700
H560        H  0.20738767  0.31965532  0.04708439     0.14300
C561        C  0.07783494  0.20656206  0.37278775    -0.15300
C562        C  0.07700481  0.17963308  0.39526347    -0.30500
H563        H  0.08083156  0.23656638  0.37775743     0.13700
H564        H  0.07510250  0.14950542  0.39025126     0.14300
C565        C  0.12700170  0.20390044  0.12203413    -0.15300
C566        C  0.11643937  0.17856778  0.14373067    -0.30500
H567        H  0.13380425  0.23281884  0.12792054     0.13700
H568        H  0.10848409  0.15002144  0.13768960     0.14300
C569        C  0.82100841  0.56869964  0.24160721    -0.15300
C570        C  0.84205893  0.55389856  0.26576708    -0.30500
H571        H  0.83510755  0.56810022  0.21988702     0.13700
H572        H  0.82834019  0.55453459  0.28760652     0.14300
C573        C  0.82614111  0.56450265  0.99581091    -0.15300
C574        C  0.85071277  0.55378485  0.01930452    -0.30500
H575        H  0.84415286  0.56996659  0.54786591     0.13700
H576        H  0.84010067  0.55758626  0.04182619     0.14300
C577        C  0.71963926  0.59764944  0.37175014    -0.15300
C578        C  0.69636951  0.58485420  0.39395731    -0.30500
H579        H  0.74871375  0.60922812  0.37682513     0.13700
H580        H  0.66727918  0.57344955  0.38860853     0.14300
C581        C  0.69698033  0.61174476  0.11958363    -0.15300
C582        C  0.66924226  0.60266877  0.14060498    -0.30500
H583        H  0.72575178  0.62241966  0.12658369     0.13700
H584        H  0.64095067  0.59068375  0.13406158     0.14300
C585        C  0.97221932  0.67546745  0.28092371    -0.15300
C586        C  0.95489819  0.64764647  0.29680088    -0.30500
H587        H  0.99578919  0.66654785  0.26544104     0.13700
H588        H  0.93002506  0.65477644  0.31163025     0.14300
C589        C  0.80375316  0.73965874  0.25784378    -0.15300
C590        C  0.78827870  0.71494784  0.27798608    -0.30500
H591        H  0.78909648  0.74302400  0.23600594     0.13700
H592        H  0.80243595  0.71016773  0.29987278     0.14300
C593        C  0.96044600  0.66281349  0.04559954    -0.15300
C594        C  0.98585953  0.64135314  0.02884541    -0.30500
H595        H  0.94210884  0.64932363  0.06249583     0.13700
H596        H  0.00294595  0.65633526  0.01187426     0.14300
C597        C  0.80828091  0.73815110  0.00655714    -0.15300
C598        C  0.79136329  0.71463278  0.02678627    -0.30500
H599        H  0.79515377  0.74043160  0.98417783     0.13700
H600        H  0.80373043  0.71105398  0.04929953     0.14300
C601        C  0.91645722  0.82345715  0.40208365    -0.15300
C602        C  0.90889380  0.79855989  0.38060484    -0.30500
H603        H  0.92293958  0.85303941  0.39625717     0.13700
H604        H  0.90145119  0.76925871  0.38652698     0.14300
C605        C  0.90249353  0.80306479  0.13129243    -0.15300
C606        C  0.90980408  0.83042987  0.15063445    -0.30500
H607        H  0.89064488  0.77603556  0.13907666     0.13700
H608        H  0.92152435  0.85751162  0.14283688     0.14300
C609        C  0.13276477  0.04685273  0.24415574    -0.15300
C610        C  0.13011129  0.01798871  0.26477260    -0.30500
H611        H  0.14544329  0.04138350  0.22243481     0.13700
H612        H  0.11959980  0.02457955  0.28693138     0.14300
C613        C  0.05296065  0.87700020  0.28520026    -0.15300
C614        C  0.02331001  0.87613954  0.26425415    -0.30500
H615        H  0.04667267  0.87045240  0.30845210     0.13700
H616        H  0.03064639  0.88141142  0.24099828     0.14300
C617        C  0.13476778  0.06540596  0.00541534    -0.15300
C618        C  0.13497428  0.03409193  0.02427483    -0.30500
H619        H  0.14496641  0.06184812  0.98275307     0.13700
H620        H  0.12546974  0.03807399  0.04705763     0.14300
C621        C  0.21615565  0.92265065  0.40447206    -0.15300
C622        C  0.18738463  0.91882639  0.38342642    -0.30500
H623        H  0.24813217  0.91986063  0.39877026     0.13700
H624        H  0.15540663  0.92181994  0.38908237     0.14300
C625        C  0.19379432  0.91038100  0.13404050    -0.15300
C626        C  0.22318861  0.90190701  0.15499975    -0.30500
H627        H  0.16351639  0.92070277  0.14050828     0.13700
H628        H  0.25362945  0.89186580  0.14872504     0.14300
C629        C  0.05464112  0.88985975  0.03425824    -0.15300
C630        C  0.02694372  0.88217423  0.01349463    -0.30500
H631        H  0.04850437  0.88432626  0.05767601     0.13700
H632        H  0.03463486  0.88555124  0.99012238     0.14300
C633        C  0.52678434  0.61379518  0.24448488    -0.15300
C634        C  0.55140754  0.61525069  0.26849752    -0.30500
H635        H  0.53964328  0.60380949  0.22381531     0.13700
H636        H  0.53835466  0.62370701  0.28950387     0.14300
C637        C  0.31234128  0.81778820  0.28349132    -0.15300
C638        C  0.32544516  0.79817600  0.25974028    -0.30500
H639        H  0.32638050  0.80995106  0.30507891     0.13700
H640        H  0.31205321  0.80513489  0.23784485     0.14300
C641        C  0.36556499  0.54894770  0.27402987    -0.15300
C642        C  0.35053319  0.52474437  0.25430435    -0.30500
H643        H  0.36692304  0.54072298  0.29759346     0.13700
H644        H  0.34819152  0.53416428  0.23097000     0.14300
C645        C  0.55577423  0.62123779  0.99663133    -0.15300
C646        C  0.52401744  0.62214180  0.01515746    -0.30500
H647        H  0.55672512  0.62680484  0.47275831     0.13700
H648        H  0.52875623  0.61247496  0.03829063     0.14300
C649        C  0.30056561  0.81754072  0.02793877    -0.15300
C650        C  0.31186408  0.79767474  0.00378048    -0.30500
H651        H  0.31260945  0.81833136  0.48138500     0.13700
H652        H  0.30234018  0.80868374  0.98168559     0.14300
C653        C  0.40861941  0.70435711  0.38847608    -0.15300
C654        C  0.42013386  0.67666857  0.36940168    -0.30500
H655        H  0.39493656  0.73186278  0.37995555     0.13700
H656        H  0.43317085  0.64893983  0.37798524     0.14300
C657        C  0.41391077  0.68801035  0.11837814    -0.15300
C658        C  0.40899131  0.71401889  0.13967697    -0.30500
H659        H  0.41848130  0.65751077  0.12451692     0.13700
H660        H  0.40335212  0.74446258  0.13373004     0.14300
C661        C  0.36745591  0.55940942  0.02413131    -0.15300
C662        C  0.35924241  0.53355599  0.00359789    -0.30500
H663        H  0.36432277  0.55249139  0.04773201     0.13700
H664        H  0.36922188  0.53634227  0.48153111     0.14300
C665        C  0.48014511  0.84374059  0.21570390    -0.15300
C666        C  0.49101785  0.81838747  0.23811555    -0.30500
H667        H  0.45907737  0.83628159  0.19839774     0.13700
H668        H  0.51079460  0.82806003  0.25555213     0.14300
C669        C  0.36946322  0.96359183  0.23232787    -0.15300
C670        C  0.34639523  0.97138523  0.25599003    -0.30500
H671        H  0.35708684  0.94900294  0.21365160     0.13700
H672        H  0.35984471  0.98623490  0.27417742     0.14300
C673        C  0.43278246  0.83831880  0.47087101    -0.15300
C674        C  0.46810257  0.85207322  0.46200585    -0.30500
H675        H  0.40828630  0.85881680  0.47694798     0.13700
H676        H  0.50134536  0.83081280  0.95796930     0.14300
C677        C  0.36658447  0.96763478  0.48933911    -0.15300
C678        C  0.34660701  0.96436544  0.51501923    -0.30500
H679        H  0.35198944  0.96109929  0.46849044     0.13700
H680        H  0.36509288  0.98734992  0.03021860     0.14300
C681        C  0.48852831  0.98234383  0.36722984    -0.15300
C682        C  0.50310793  0.00414780  0.34490729    -0.30500
H683        H  0.47213723  0.95705840  0.36247245     0.13700
H684        H  0.51848428  0.03004335  0.34960692     0.14300
C685        C  0.50075042  0.97809260  0.11637968    -0.15300
C686        C  0.51165807  0.00368199  0.09513099    -0.30500
H687        H  0.48548068  0.95255787  0.11052229     0.13700
H688        H  0.52500553  0.03022266  0.10096394     0.14300
C689        C  0.43118263  0.38394406  0.22976636    -0.15300
C690        C  0.46441958  0.38209829  0.24758109    -0.30500
H691        H  0.43337637  0.37570911  0.20676775     0.13700
H692        H  0.46119327  0.38949598  0.27073127     0.14300
C693        C  0.50309267  0.13896351  0.24368788    -0.15300
C694        C  0.51649774  0.16734069  0.22574102    -0.30500
H695        H  0.49692601  0.14414156  0.26691873     0.13700
H696        H  0.52254763  0.16201191  0.20250996     0.14300
C697        C  0.62560904  0.47079550  0.24092466    -0.15300
C698        C  0.62124580  0.44067414  0.26028699    -0.30500
H699        H  0.61856554  0.46826450  0.21743746     0.13700
H700        H  0.63016721  0.44263930  0.28350264     0.14300
C701        C  0.47875375  0.38745748  0.99689487    -0.15300
C702        C  0.44520783  0.38948851  0.97962902    -0.30500
H703        H  0.48585675  0.39042149  0.52390046     0.13700
H704        H  0.44593288  0.37812457  0.95747483     0.14300
C705        C  0.51096025  0.14061151  0.50155113    -0.15300
C706        C  0.51879551  0.17043321  0.48286847    -0.30500
H707        H  0.50131584  0.14596195  0.01948148     0.13700
H708        H  0.51503114  0.16777511  0.45899990     0.14300
C709        C  0.58042363  0.28662495  0.38132435    -0.15300
C710        C  0.57601017  0.31411894  0.35932894    -0.30500
H711        H  0.58318277  0.25635551  0.37614028     0.13700
H712        H  0.57286221  0.34436112  0.36456216     0.14300
C713        C  0.57924917  0.31541909  0.10968345    -0.15300
C714        C  0.58268316  0.28787052  0.13160723    -0.30500
H715        H  0.57218851  0.34528331  0.11492114     0.13700
H716        H  0.59054371  0.25809878  0.12651891     0.14300
C717        C  0.63083504  0.44057960  0.00825643    -0.15300
C718        C  0.63387575  0.47033583  0.98834914    -0.30500
H719        H  0.63822949  0.44398455  0.03158954     0.13700
H720        H  0.63260449  0.46330705  0.47169422     0.14300
C721        C  0.87426572  0.96332966  0.24006709    -0.15300
C722        C  0.87576135  0.99398564  0.25707555    -0.30500
H723        H  0.86341368  0.96695518  0.21714370     0.13700
H724        H  0.88488670  0.98980260  0.28036075     0.14300
C725        C  0.62623620  0.03086653  0.24074856    -0.15300
C726        C  0.65576067  0.04329892  0.22305435    -0.30500
H727        H  0.63177884  0.02773147  0.26463191     0.13700
H728        H  0.65037457  0.04661772  0.19916772     0.14300
C729        C  0.67037151  0.20671236  0.26248090    -0.15300
C730        C  0.69151425  0.19115403  0.24010736    -0.30500
H731        H  0.67818783  0.19674705  0.28519503     0.13700
H732        H  0.68432466  0.20023953  0.21715014     0.14300
C733        C  0.94757500  0.13556052  0.26598291    -0.15300
C734        C  0.98015394  0.13401526  0.24805151    -0.30500
H735        H  0.95074488  0.14421420  0.28880103     0.13700
H736        H  0.97612298  0.12676049  0.22495563     0.14300
C737        C  0.87153087  0.98323869  0.00380549    -0.15300
C738        C  0.87591267  0.95282134  0.98644387    -0.30500
H739        H  0.87668563  0.97894475  0.02767510     0.13700
H740        H  0.85748165  0.96491750  0.52748204     0.14300
C741        C  0.65193377  0.03592982  0.46476360    -0.15300
C742        C  0.62368220  0.02158434  0.48263040    -0.30500
H743        H  0.64362581  0.04727705  0.44250206     0.13700
H744        H  0.63199744  0.01145288  0.50520675     0.14300
C745        C  0.67905944  0.20151806  0.01275292    -0.15300
C746        C  0.69619196  0.18282479  0.99004119    -0.30500
H747        H  0.68695380  0.18989391  0.47021596     0.13700
H748        H  0.68653683  0.19067459  0.96729560     0.14300
C749        C  0.77973886  0.11105520  0.37976020    -0.15300
C750        C  0.80807061  0.10604757  0.35868924    -0.30500
H751        H  0.74823803  0.11896609  0.37365360     0.13700
H752        H  0.83951008  0.09830897  0.36513814     0.14300
C753        C  0.80900586  0.08810226  0.10847688    -0.15300
C754        C  0.78181391  0.09555302  0.12980940    -0.30500
H755        H  0.84086851  0.08171396  0.11436869     0.13700
H756        H  0.75008122  0.10268424  0.12390295     0.14300
C757        C  0.94095994  0.12576461  0.01785481    -0.15300
C758        C  0.97430319  0.12254001  0.00113807    -0.30500
H759        H  0.94199914  0.13892020  0.03934880     0.13700
H760        H  0.97316921  0.10909019  0.47794372     0.14300
O761        O  0.76451438  0.07292531  0.56607634    -0.79800
O762        O  0.76584865  0.09467897  0.92789152    -0.64400
O763        O  0.77602520  0.05480194  0.50633016    -1.11000
C764        C  0.90667375  0.09635791  0.50808904     1.07100
O765        O  0.83010792  0.07832867  0.91705836    -0.77700
O766        O  0.85742028  0.03356610  0.96621906    -0.65200
Ni767      Ni  0.73364641  0.05355750  0.53413392     1.34900
C768        C  0.85985402  0.02312041  0.99365078     0.85900
O769        O  0.72106817  0.05382383  0.96317185    -0.78200
O770        O  0.69922093  0.03422611  0.50456572    -0.88500
C771        C  0.79357879  0.08830425  0.90926041     0.85400
O772        O  0.71111225  0.10450509  0.52641381    -0.66700
O773        O  0.90220090  0.09417571  0.98293439    -0.86000
C774        C  0.71832694  0.13209395  0.50837570     0.86300
C775        C  0.69073269  0.05179658  0.97995049     1.07800
H776        H  0.81349775  0.13355469  0.97090997     0.39600
O777        O  0.81770110  0.10607042  0.97477266    -1.08600
O778        O  0.85448657  0.02901235  0.50544224    -0.65300
Ni779      Ni  0.82582702  0.07626781  0.51660894     1.26300
O780        O  0.73612435  0.12846965  0.97396317    -0.65500
O781        O  0.87581799  0.09864626  0.52469012    -0.77800
C782        C  0.80062341  0.06292788  0.57449193     0.85700
O783        O  0.82789275  0.05398951  0.55602424    -0.65000
Ni784      Ni  0.86275290  0.08594754  0.95208332     1.27400
Ni785      Ni  0.76876758  0.08076333  0.96903386     1.26100
H786        H  0.78151663  0.02820301  0.50156224     0.40200
O787        O  0.76249005  0.09911039  0.81597479    -0.79800
O788        O  0.76720276  0.08903659  0.67572888    -0.64400
O789        O  0.77610753  0.06763636  0.75936995    -1.11000
C790        C  0.90466357  0.11777447  0.75182579     1.07100
O791        O  0.83131726  0.06978575  0.66653366    -0.77700
O792        O  0.86468506  0.03342460  0.71579782    -0.65200
Ni793      Ni  0.73081376  0.07830597  0.78475083     1.34900
C794        C  0.86555868  0.02387672  0.74332337     0.85900
O795        O  0.72126260  0.05172602  0.71317752    -0.78200
O796        O  0.69304663  0.05688941  0.75792314    -0.88500
C797        C  0.79482028  0.07830806  0.65802243     0.85400
O798        O  0.71803494  0.12904211  0.76849108    -0.66700
O799        O  0.90481485  0.09976714  0.72763004    -0.86000
C800        C  0.71924150  0.14378294  0.74217773     0.86300
C801        C  0.69220519  0.04699279  0.73098307     1.07800
H802        H  0.81456569  0.13171795  0.71731660     0.39600
O803        O  0.81932392  0.10442693  0.72185983    -1.08600
O804        O  0.85662477  0.04762644  0.76321834    -0.65300
Ni805      Ni  0.82432591  0.09550358  0.76395321     1.26300
O806        O  0.73744017  0.12692869  0.72093054    -0.65500
O807        O  0.87269484  0.12318924  0.76707467    -0.77800
C808        C  0.79934504  0.09198701  0.82412740     0.85700
O809        O  0.82748092  0.08614522  0.80575279    -0.65000
Ni810      Ni  0.86464636  0.08492647  0.69904277     1.27400
Ni811      Ni  0.76991552  0.07865685  0.71745193     1.26100
H812        H  0.78303852  0.04034238  0.76209944     0.40200
O813        O  0.56786786  0.32491689  0.92011992    -0.79800
O814        O  0.59348985  0.32898764  0.55973475    -0.64400
O815        O  0.60404841  0.32163764  0.97696269    -1.11000
C816        C  0.53853927  0.20339049  0.98970698     1.07100
O817        O  0.60962062  0.26785180  0.57181968    -0.77700
O818        O  0.63116458  0.22022356  0.52707568    -0.65200
Ni819      Ni  0.58421488  0.36103874  0.94862112     1.34900
C820        C  0.64398210  0.22018676  0.50046182     0.85900
O821        O  0.63537690  0.36757901  0.51964669    -0.78200
O822        O  0.60070173  0.40116021  0.97375226    -0.88500
C823        C  0.59973207  0.30200725  0.57917621     0.85400
O824        O  0.52913431  0.36611510  0.96226825    -0.66700
O825        O  0.55135993  0.20481717  0.51971303    -0.86000
C826        C  0.52884793  0.36593356  0.49262862     0.86300
C827        C  0.62798117  0.39813935  0.50374806     1.07800
H828        H  0.54180313  0.28939640  0.51832604     0.39600
O829        O  0.57004391  0.28113976  0.51587016    -1.08600
O830        O  0.63075631  0.24595096  0.98689314    -0.65300
Ni831      Ni  0.58012126  0.27349405  0.97385495     1.26300
O832        O  0.55416731  0.35804027  0.51385277    -0.65500
O833        O  0.55494890  0.22565250  0.97088577    -0.77800
C834        C  0.58567830  0.29284304  0.91384968     0.85700
O835        O  0.59816126  0.26839293  0.93409292    -0.65000
Ni836      Ni  0.58080641  0.23851880  0.54372946     1.27400
Ni837      Ni  0.60271778  0.32438861  0.51837234     1.26100
H838        H  0.63324324  0.31821005  0.97523248     0.40200
O839        O  0.56731626  0.32617864  0.66924862    -0.79800
O840        O  0.57361600  0.32831823  0.80970191    -0.64400
O841        O  0.59928434  0.32121577  0.72778244    -1.11000
C842        C  0.54026562  0.19941300  0.73924383     1.07100
O843        O  0.59394960  0.26778015  0.82132041    -0.77700
O844        O  0.61966941  0.21884503  0.78043104    -0.65200
Ni845      Ni  0.57656121  0.36124810  0.70085529     1.34900
C846        C  0.64126123  0.22393315  0.75763977     0.85900
O847        O  0.61191068  0.37373652  0.77104788    -0.78200
O848        O  0.58740351  0.40152726  0.72809641    -0.88500
C849        C  0.58302651  0.30153178  0.82885487     0.85400
O850        O  0.52086998  0.35889547  0.71412484    -0.66700
O851        O  0.54134776  0.20354075  0.76728324    -0.86000
C852        C  0.50978363  0.36133239  0.74107562     0.86300
C853        C  0.60555793  0.40308523  0.75331684     1.07800
H854        H  0.53085125  0.28466583  0.76247111     0.39600
O855        O  0.55990697  0.27902152  0.76366931    -1.08600
O856        O  0.62967546  0.24557639  0.73513587    -0.65300
Ni857      Ni  0.57757175  0.27193201  0.72395226     1.26300
O858        O  0.53448828  0.35439919  0.76273814    -0.65500
O859        O  0.55411217  0.22326899  0.72032456    -0.77800
C860        C  0.58522351  0.29368247  0.66371044     0.85700
O861        O  0.59515585  0.26861808  0.68411402    -0.65000
Ni862      Ni  0.56755314  0.23774336  0.79274340     1.27400
Ni863      Ni  0.58610570  0.32613688  0.76857287     1.26100
H864        H  0.62849626  0.31922521  0.72573649     0.40200
O865        O  0.48667265  0.96293244  0.55935888    -0.79800
O866        O  0.47874428  0.96883909  0.91753545    -0.64400
O867        O  0.50642302  0.96634324  0.49962485    -1.11000
C868        C  0.50315864  0.10150275  0.98574552     1.07100
O869        O  0.52019306  0.01389885  0.90363998    -0.77700
O870        O  0.56992271  0.03014644  0.94991894    -0.65200
Ni871      Ni  0.47506686  0.93525846  0.52520515     1.34900
C872        C  0.58047836  0.02871073  0.97722863     0.85900
O873        O  0.50437464  0.91237968  0.95549939    -0.78200
O874        O  0.46056834  0.90100465  0.49540007    -0.88500
C875        C  0.49530495  0.98861778  0.89760065     0.85400
O876        O  0.42866297  0.96849837  0.51593755    -0.66700
O877        O  0.51895301  0.09324846  0.96085261    -0.86000
C878        C  0.41691531  0.96744092  0.98922100     0.86300
C879        C  0.48383986  0.88983509  0.97103925     1.07800
H880        H  0.45848334  0.02949174  0.95689581     0.39600
O881        O  0.48674927  0.02131920  0.96042644    -1.08600
O882        O  0.55680811  0.02388749  0.49826396    -0.65300
Ni883      Ni  0.49975160  0.02111568  0.50459878     1.26300
O884        O  0.43747044  0.96279365  0.96566889    -0.65500
O885        O  0.49364694  0.07578787  0.50819737    -0.77800
C886        C  0.50373746  0.99318261  0.56567356     0.85700
O887        O  0.51396623  0.01782190  0.54609057    -0.65000
Ni888      Ni  0.51875192  0.05125793  0.93421278     1.27400
Ni889      Ni  0.49500451  0.96705084  0.95779021     1.26100
H890        H  0.53466728  0.95717612  0.50130720     0.40200
O891        O  0.45979557  0.97694721  0.80647852    -0.79800
O892        O  0.47506989  0.96592160  0.66766656    -0.64400
O893        O  0.49491675  0.96070766  0.75113891    -1.11000
C894        C  0.50852753  0.09609371  0.73562205     1.07100
O895        O  0.52712198  0.00227332  0.65983817    -0.77700
O896        O  0.57080864  0.03345213  0.70319424    -0.65200
Ni897      Ni  0.45700316  0.93769743  0.77742726     1.34900
C898        C  0.58215977  0.01935315  0.72865256     0.85900
O899        O  0.48142805  0.90686985  0.70815822    -0.78200
O900        O  0.45302133  0.89454199  0.75245788    -0.80500
C901        C  0.49936448  0.98205370  0.65021256     0.85400
O902        O  0.40845501  0.96364645  0.76046869    -0.66700
O903        O  0.51150587  0.09035547  0.70787271    -0.86000
C904        C  0.39977401  0.97246187  0.73336070     0.86300
C905        C  0.46663055  0.88397528  0.72743432     1.07800
H906        H  0.45881716  0.02858493  0.71040283     0.39600
O907        O  0.48600826  0.01663707  0.71241300    -1.08600
O908        O  0.55754736  0.00813980  0.74822429    -0.65300
Ni909      Ni  0.49975804  0.01496270  0.75338913     1.26300
O910        O  0.42519673  0.96822976  0.71247094    -0.65500
O911        O  0.50387337  0.06945837  0.75529031    -0.77800
C912        C  0.48974564  0.99650829  0.81340153     0.85700
O913        O  0.51249943  0.01082383  0.79418547    -0.65000
Ni914      Ni  0.51828899  0.04489615  0.68517160     1.27400
Ni915      Ni  0.48362693  0.96190917  0.70951681     1.26100
H916        H  0.52117796  0.94731183  0.75477063     0.40200
O917        O  0.43303759  0.67059082  0.92969803    -0.79800
O918        O  0.41993017  0.66775023  0.57041521    -0.64400
O919        O  0.39368532  0.67717885  0.98479648    -1.11000
C920        C  0.43451042  0.80168135  0.98339161     1.07100
O921        O  0.42454437  0.72966679  0.58061416    -0.77700
O922        O  0.36623301  0.75095608  0.53971541    -0.65200
Ni923      Ni  0.41747851  0.63657181  0.96166222     1.34900
C924        C  0.34703958  0.75795897  0.51537254     0.85900
O925        O  0.38502083  0.62087479  0.53330128    -0.78200
O926        O  0.40195309  0.59776429  0.99000257    -0.88500
C927        C  0.42309318  0.69440827  0.58861617     0.85400
O928        O  0.47166939  0.63649022  0.97820052    -0.66700
O929        O  0.41826702  0.79846866  0.51168033    -0.86000
C930        C  0.48732658  0.63368974  0.50586544     0.86300
C931        C  0.38939508  0.59231780  0.51629833     1.07800
H932        H  0.46478676  0.71348823  0.52016560     0.39600
O933        O  0.43552048  0.71762196  0.52005750    -1.08600
O934        O  0.36461651  0.75545656  0.98362287    -0.65300
Ni935      Ni  0.41657630  0.72516191  0.97755108     1.26300
O936        O  0.46282866  0.64222938  0.52651725    -0.65500
O937        O  0.44307056  0.77129280  0.96991718    -0.77800
C938        C  0.41272797  0.70055877  0.91968072     0.85700
O939        O  0.40056928  0.72657378  0.93681831    -0.65000
Ni940      Ni  0.42172521  0.76031106  0.54422191     1.27400
Ni941      Ni  0.40993845  0.66943360  0.52838136     1.26100
H942        H  0.36462510  0.67961072  0.98126775     0.40200
O943        O  0.42602816  0.66331922  0.68159213    -0.79800
O944        O  0.40565433  0.65302779  0.82075321    -0.64400
O945        O  0.38764568  0.66688459  0.73679478    -1.11000
C946        C  0.46025158  0.78075866  0.75098954     1.07100
O947        O  0.38908464  0.71436230  0.82618214    -0.77700
O948        O  0.38075041  0.77153399  0.78474166    -0.65200
Ni949      Ni  0.41015559  0.62737665  0.71265421     1.34900
C950        C  0.35690369  0.76891527  0.76260677     0.85900
O951        O  0.36648224  0.61256600  0.78038228    -0.78200
O952        O  0.39355891  0.58630391  0.73981279    -0.88500
C953        C  0.39944761  0.68123077  0.83739166     0.85400
O954        O  0.46389170  0.62762793  0.73008179    -0.66700
O955        O  0.46226757  0.77017413  0.77846394    -0.86000
C956        C  0.47278752  0.62209404  0.75756526     0.86300
C957        C  0.37264413  0.58407523  0.76360640     1.07800
H958        H  0.45677802  0.69408150  0.77382192     0.39600
O959        O  0.42834118  0.70254660  0.77387650    -1.08600
O960        O  0.36327058  0.74399410  0.74270737    -0.65300
Ni961      Ni  0.41380853  0.71486939  0.73357705     1.26300
O962        O  0.44615438  0.62553102  0.77742263    -0.65500
O963        O  0.44084100  0.76311590  0.73135821    -0.77800
C964        C  0.41341165  0.69763858  0.67362441     0.85700
O965        O  0.40050580  0.72196175  0.69225167    -0.65000
Ni966      Ni  0.42572228  0.74134826  0.80176995     1.27400
Ni967      Ni  0.39681116  0.65799859  0.77863465     1.26100
H968        H  0.35882753  0.67100441  0.73260119     0.40200
O969        O  0.22824995  0.87495006  0.59087212    -0.79800
O970        O  0.24101000  0.91332262  0.95673228    -0.64400
O971        O  0.22495221  0.92533623  0.53968542    -1.11000
C972        C  0.09000468  0.89611561  0.52730603     1.07100
O973        O  0.18132859  0.94260654  0.94270802    -0.77700
O974        O  0.14830537  0.98418005  0.98907345    -0.65200
Ni975      Ni  0.26606006  0.89947515  0.56489621     1.34900
C976        C  0.14389998  0.98552606  0.51866711     0.85900
O977        O  0.29062615  0.94423021  0.99688441    -0.78200
O978        O  0.30665708  0.92504229  0.54306247    -0.88500
C979        C  0.21542305  0.92540602  0.93651454     0.85400
O980        O  0.27563482  0.85287499  0.54307263    -0.66700
O981        O  0.09831368  0.92249958  0.00109684    -0.86000
C982        C  0.27491888  0.84792884  0.51511398     0.86300
C983        C  0.31293553  0.95605880  0.01779847     1.07800
H984        H  0.18296801  0.88015744  0.99758434     0.39600
O985        O  0.18268938  0.90753233  0.00050873    -1.08600
O986        O  0.14857093  0.95922096  0.53943657    -0.65300
Ni987      Ni  0.17257294  0.90604603  0.54162552     1.26300
O988        O  0.25954642  0.87225844  0.00644496    -0.65500
O989        O  0.12077465  0.88493935  0.54309834    -0.77800
C990        C  0.19690858  0.89291788  0.60101739     0.85700
O991        O  0.17081649  0.91018635  0.58353856    -0.65000
Ni992      Ni  0.14267708  0.93316455  0.97421274     1.27400
Ni993      Ni  0.23678588  0.92481003  0.99791886     1.26100
H994        H  0.22340053  0.95208329  0.54480679     0.40200
O995        O  0.24287985  0.90825200  0.84230010    -0.79800
O996        O  0.23894107  0.89305193  0.70521293    -0.64400
O997        O  0.22723402  0.93375419  0.78253627    -1.11000
C998        C  0.09787510  0.88583483  0.77801531     1.07100
O999        O  0.17874999  0.91979320  0.69120562    -0.77700
O1000       O  0.14328824  0.96399241  0.73354971    -0.65200
Ni1001     Ni  0.27185331  0.93269941  0.81001046     1.34900
C1002       C  0.13982242  0.97667131  0.75955670     0.85900
O1003       O  0.28532314  0.93777190  0.73676355    -0.78200
O1004       O  0.30321151  0.96034634  0.78085787    -0.88500
C1005       C  0.21205881  0.90147950  0.68519161     0.85400
O1006       O  0.29603963  0.88360897  0.79963180    -0.66700
O1007       O  0.10028017  0.90104070  0.75182227    -0.86000
C1008       C  0.28970730  0.85964643  0.77964002     0.86300
C1009       C  0.30552418  0.95971113  0.75255828     1.07800
H1010       H  0.18689955  0.86423449  0.75076888     0.39600
O1011       O  0.18409504  0.89202612  0.75101177    -1.08600
O1012       O  0.14701718  0.95541893  0.78282294    -0.65300
Ni1013     Ni  0.17855727  0.90771282  0.79110779     1.26300
O1014       O  0.26421833  0.86646286  0.75827814    -0.65500
O1015       O  0.12815186  0.88247410  0.79637626    -0.77800
C1016       C  0.20678566  0.91771378  0.85054206     0.85700
O1017       O  0.17735504  0.92245756  0.83183119    -0.65000
Ni1018     Ni  0.14208717  0.91080636  0.72349230     1.27400
Ni1019     Ni  0.23517545  0.91360355  0.74394680     1.26100
H1020       H  0.21978214  0.96085482  0.77916056     0.40200
O1021       O  0.93718227  0.81819981  0.59087684    -0.79800
O1022       O  0.93181766  0.83463492  0.95215651    -0.64400
O1023       O  0.89548669  0.82457115  0.53651206    -1.11000
C1024       C  0.92594555  0.69332481  0.52887281     1.07100
O1025       O  0.91076219  0.77731615  0.94244117    -0.77700
O1026       O  0.87173711  0.74150100  0.98559167    -0.65200
Ni1027     Ni  0.91569689  0.85902410  0.56431646     1.34900
C1028       C  0.84102079  0.75480823  0.50732042     0.85900
O1029       O  0.89010132  0.88542985  0.98349328    -0.78200
O1030       O  0.89441949  0.90237684  0.54046484    -0.88500
C1031       C  0.92239028  0.80994724  0.93400966     0.85400
O1032       O  0.96877257  0.86382618  0.54836373    -0.66700
O1033       O  0.90804097  0.70101042  0.50403464    -0.86000
C1034       C  0.98160585  0.86206466  0.52192592     0.86300
C1035       C  0.88265856  0.90966065  0.51363017     1.07800
H1036       H  0.96753637  0.78509449  0.00354890     0.39600
O1037       O  0.93831735  0.78424599  0.00212684    -1.08600
O1038       O  0.86149474  0.75516659  0.53175450    -0.65300
Ni1039     Ni  0.91579800  0.77217702  0.54104282     1.26300
O1040       O  0.96614381  0.85683558  0.99857638    -0.65500
O1041       O  0.93793482  0.71962245  0.54498563    -0.77800
C1042       C  0.91582968  0.79127256  0.60030982     0.85700
O1043       O  0.90094344  0.76890523  0.58206511    -0.65000
Ni1044     Ni  0.92738361  0.74410611  0.97592656     1.27400
Ni1045     Ni  0.91476297  0.83495914  0.99210785     1.26100
H1046       H  0.86625571  0.82581901  0.53840827     0.40200
O1047       O  0.92293048  0.84001439  0.84196266    -0.79800
O1048       O  0.92335109  0.83458193  0.70064359    -0.64400
O1049       O  0.89597357  0.83217181  0.78311114    -1.11000
C1050       C  0.95882751  0.70613720  0.77810532     1.07100
O1051       O  0.89351020  0.78035699  0.69487523    -0.77700
O1052       O  0.86742620  0.73559919  0.74082344    -0.65200
Ni1053     Ni  0.91549420  0.87247361  0.80665449     1.34900
C1054       C  0.85232644  0.74031404  0.76641856     0.85900
O1055       O  0.88451998  0.88549563  0.73470077    -0.78200
O1056       O  0.90812078  0.91186247  0.77524760    -0.88500
C1057       C  0.91083279  0.80920177  0.68389137     0.85400
O1058       O  0.97133944  0.86207275  0.79699141    -0.66700
O1059       O  0.94725844  0.70785701  0.75088493    -0.86000
C1060       C  0.98523513  0.86119300  0.77082406     0.86300
C1061       C  0.89105470  0.91466855  0.74961596     1.07800
H1062       H  0.96345890  0.78597841  0.74808686     0.39600
O1063       O  0.93429492  0.78504737  0.74953180    -1.08600
O1064       O  0.87042641  0.75751902  0.78670932    -0.65300
Ni1065     Ni  0.92193990  0.78146299  0.79057620     1.26300
O1066       O  0.96274495  0.85615280  0.74807834    -0.65500
O1067       O  0.95026200  0.73204986  0.79659407    -0.77800
C1068       C  0.91634746  0.80553029  0.84983240     0.85700
O1069       O  0.91041949  0.77977743  0.83159117    -0.65000
Ni1070     Ni  0.91958548  0.74532674  0.72430701     1.27400
Ni1071     Ni  0.90983934  0.83518587  0.74178662     1.26100
H1072       H  0.86682482  0.83160878  0.78499591     0.40200
O1073       O  0.65351005  0.60257678  0.57613721    -0.79800
O1074       O  0.66742127  0.59123219  0.93892634    -0.64400
O1075       O  0.69429478  0.57207687  0.52751707    -1.11000
C1076       C  0.76682567  0.68125996  0.51723637     1.07100
O1077       O  0.72084966  0.62392246  0.92589518    -0.77700
O1078       O  0.77462998  0.60125812  0.97053485    -0.65200
Ni1079     Ni  0.65130709  0.55773403  0.55281700     1.34900
C1080       C  0.79374078  0.58034767  0.51509961     0.85900
O1081       O  0.65765021  0.53224733  0.97781211    -0.78200
O1082       O  0.64773340  0.51123577  0.53187175    -0.88500
C1083       C  0.68972476  0.60611218  0.91928855     0.85400
O1084       O  0.60574501  0.58193755  0.53071935    -0.66700
O1085       O  0.76947259  0.67497981  0.98960796    -0.86000
C1086       C  0.60209602  0.60001083  0.50558887     0.86300
C1087       C  0.65084460  0.50381622  0.50441818     1.07800
H1088       H  0.67846426  0.65245868  0.98488267     0.39600
O1089       O  0.70007418  0.63239038  0.98629189    -1.08600
O1090       O  0.77032978  0.59738167  0.53334474    -0.65300
Ni1091     Ni  0.71548888  0.62140343  0.53071474     1.26300
O1092       O  0.62402409  0.60502150  0.98546904    -0.65500
O1093       O  0.73691043  0.67070725  0.53233226    -0.77800
C1094       C  0.68631527  0.61228112  0.58801443     0.85700
O1095       O  0.71746244  0.61761502  0.57267793    -0.65000
Ni1096     Ni  0.74244454  0.64705225  0.96026513     1.27400
Ni1097     Ni  0.67825152  0.58265750  0.98085643     1.26100
H1098       H  0.71606915  0.55250918  0.53107921     0.40200
O1099       O  0.65859669  0.60523869  0.82471655    -0.79800
O1100       O  0.64935047  0.59101117  0.69044828    -0.64400
O1101       O  0.68417113  0.57705920  0.77115221    -1.11000
C1102       C  0.75427745  0.69203263  0.74954285     1.07100
O1103       O  0.71195674  0.60158276  0.67886985    -0.77700
O1104       O  0.77233635  0.61090448  0.71619064    -0.65200
Ni1105     Ni  0.64721258  0.56206355  0.80096481     1.34900
C1106       C  0.78237311  0.59422644  0.74095296     0.85900
O1107       O  0.64222450  0.53354543  0.73125365    -0.78200
O1108       O  0.63590474  0.51659535  0.77980747    -0.88500
C1109       C  0.67552479  0.59774783  0.67103971     0.85400
O1110       O  0.59771628  0.58801205  0.78473991    -0.66700
O1111       O  0.74663829  0.68538643  0.72248208    -0.86000
C1112       C  0.58914985  0.60498777  0.75958471     0.86300
C1113       C  0.63372884  0.50946341  0.75216669     1.07800
H1114       H  0.67031240  0.65206303  0.73200252     0.39600
O1115       O  0.69125238  0.63135770  0.73258475    -1.08600
O1116       O  0.76109404  0.59660220  0.76433114    -0.65300
Ni1117     Ni  0.71065780  0.62495632  0.77273876     1.26300
O1118       O  0.61479104  0.60828996  0.73913661    -0.65500
O1119       O  0.74083230  0.67217866  0.77178208    -0.77800
C1120       C  0.69450657  0.61209939  0.83327703     0.85700
O1121       O  0.72273354  0.61705055  0.81447350    -0.65000
Ni1122     Ni  0.72760769  0.64316848  0.70175637     1.27400
Ni1123     Ni  0.66600924  0.58289583  0.73110978     1.26100
H1124       H  0.70506408  0.55631982  0.77168337     0.40200
O1125       O  0.08102590  0.23171396  0.93306588    -0.79800
O1126       O  0.13014752  0.21931893  0.57020634    -0.64400
O1127       O  0.12680628  0.20971825  0.98644245    -1.11000
C1128       C  0.01295398  0.13748781  0.00984772     1.07100
O1129       O  0.12037039  0.15799170  0.58155174    -0.77700
O1130       O  0.10305521  0.10239604  0.54115044    -0.65200
Ni1131     Ni  0.12077107  0.25341236  0.95903675     1.34900
C1132       C  0.11854816  0.09711982  0.51565170     0.85900
O1133       O  0.17845242  0.24293440  0.52424638    -0.78200
O1134       O  0.16254484  0.27762881  0.98019262    -0.88500
C1135       C  0.12645715  0.19200371  0.58957795     0.85400
O1136       O  0.07831749  0.28266124  0.97938828    -0.66700
O1137       O  0.02440992  0.13194047  0.53821634    -0.86000
C1138       C  0.07937385  0.28192190  0.50501814     0.86300
C1139       C  0.18768465  0.26507474  0.50205906     1.07800
H1140       H  0.05906677  0.20255910  0.52982743     0.39600
O1141       O  0.08215551  0.18428370  0.52838811    -1.08600
O1142       O  0.11634064  0.13160302  0.99348695    -0.65300
Ni1143     Ni  0.08162404  0.17837269  0.98731896     1.26300
O1144       O  0.09707171  0.26015007  0.52518409    -0.65500
O1145       O  0.03512020  0.14864718  0.98868015    -0.77800
C1146       C  0.08023386  0.19658072  0.92604238     0.85700
O1147       O  0.08502607  0.16954765  0.94578129    -0.65000
Ni1148     Ni  0.07340896  0.14546916  0.55841036     1.27400
Ni1149     Ni  0.13064169  0.21282001  0.52785489     1.26100
H1150       H  0.15110430  0.19446579  0.98151196     0.40200
O1151       O  0.06863718  0.16399779  0.83445201    -0.79800
O1152       O  0.09534199  0.16187362  0.69277463    -0.64400
O1153       O  0.10323480  0.17029716  0.77742623    -1.11000
C1154       C  0.03715268  0.29340075  0.75315720     1.07100
O1155       O  0.12091999  0.21859278  0.68415390    -0.77700
O1156       O  0.13347042  0.26824607  0.72949410    -0.65200
Ni1157     Ni  0.07939267  0.13078521  0.80150112     1.34900
C1158       C  0.14304495  0.26626006  0.75710277     0.85900
O1159       O  0.12646980  0.11458596  0.73666938    -0.78200
O1160       O  0.09059405  0.09040613  0.77377258    -0.88500
C1161       C  0.11087666  0.18612939  0.67507643     0.85400
O1162       O  0.02627603  0.14260118  0.78400241    -0.66700
O1163       O  0.05222130  0.29104293  0.72716621    -0.86000
C1164       C  0.01838694  0.14006994  0.75631579     0.86300
C1165       C  0.11485678  0.08612339  0.75212477     1.07800
H1166       H  0.04244402  0.21103970  0.73009562     0.39600
O1167       O  0.07076769  0.21374035  0.73487355    -1.08600
O1168       O  0.12379948  0.24692178  0.77637597    -0.65300
Ni1169     Ni  0.07399902  0.21991770  0.77664044     1.26300
O1170       O  0.04588382  0.14193868  0.73652687    -0.65500
O1171       O  0.04332645  0.26792103  0.77408636    -0.77800
C1172       C  0.07242428  0.19934001  0.83962058     0.85700
O1173       O  0.07689099  0.22460834  0.81894587    -0.65000
Ni1174     Ni  0.08688952  0.25326438  0.70758999     1.27400
Ni1175     Ni  0.09873243  0.16444302  0.73520763     1.26100
H1176       H  0.13136266  0.17225953  0.78321303     0.40200
O1177       O  0.25674881  0.40862386  0.93791820    -0.79800
O1178       O  0.28506455  0.41253066  0.58005705    -0.64400
O1179       O  0.26864070  0.44302572  0.99473332    -1.11000
C1180       C  0.40614497  0.40361981  0.99227458     1.07100
O1181       O  0.34837564  0.43004239  0.58690303    -0.77700
O1182       O  0.36443082  0.47457660  0.53893666    -0.65200
Ni1183     Ni  0.22538928  0.42211841  0.97287263     1.34900
C1184       C  0.35999341  0.48741408  0.51226656     0.85900
O1185       O  0.22585977  0.44505540  0.54493441    -0.78200
O1186       O  0.18711798  0.43498138  0.00339028    -0.88500
C1187       C  0.31427031  0.42114195  0.59681485     0.85400
O1188       O  0.23595537  0.37120248  0.98970985    -0.66700
O1189       O  0.41575908  0.41556361  0.51917889    -0.86000
C1190       C  0.24332843  0.35344121  0.51584218     0.86300
C1191       C  0.19433934  0.44479245  0.52826807     1.07800
H1192       H  0.33496445  0.37469132  0.53288238     0.39600
O1193       O  0.33357322  0.40238136  0.52978489    -1.08600
O1194       O  0.34326385  0.47157632  0.98945863    -0.65300
Ni1195     Ni  0.32134544  0.42101369  0.98672191     1.26300
O1196       O  0.25825202  0.37302138  0.53618419    -0.65500
O1197       O  0.37334464  0.39691109  0.97922491    -0.77800
C1198       C  0.28977170  0.42057708  0.92771762     0.85700
O1199       O  0.31655295  0.43281873  0.94481744    -0.65000
Ni1200     Ni  0.37812440  0.42241569  0.55118491     1.27400
Ni1201     Ni  0.27983705  0.42356392  0.53801034     1.26100
H1202       H  0.26740483  0.47056272  0.99072098     0.40200
O1203       O  0.24277525  0.39701393  0.68774275    -0.79800
O1204       O  0.25874695  0.39065326  0.82420330    -0.64400
O1205       O  0.25485493  0.42877595  0.74328828    -1.11000
C1206       C  0.39385372  0.38955307  0.74368086     1.07100
O1207       O  0.31404097  0.42260437  0.83287107    -0.77700
O1208       O  0.34382458  0.46531376  0.78634848    -0.65200
Ni1209     Ni  0.21043955  0.42186371  0.71737868     1.34900
C1210       C  0.33981164  0.47907250  0.75977810     0.85900
O1211       O  0.19837886  0.42534793  0.79018495    -0.78200
O1212       O  0.17457864  0.44604778  0.74489499    -0.88500
C1213       C  0.28286759  0.40573273  0.84218387     0.85400
O1214       O  0.19775817  0.37211372  0.73191187    -0.66700
O1215       O  0.39205569  0.40113254  0.77041843    -0.86000
C1216       C  0.21241906  0.34841374  0.75193191     0.86300
C1217       C  0.17069958  0.44148120  0.77297059     1.07800
H1218       H  0.31298130  0.36486644  0.77677310     0.39600
O1219       O  0.30965654  0.39266216  0.77529972    -1.08600
O1220       O  0.32905702  0.45897755  0.73828999    -0.65300
Ni1221     Ni  0.30819119  0.40848694  0.73406119     1.26300
O1222       O  0.23695274  0.35768596  0.77247767    -0.65500
O1223       O  0.36242614  0.38778428  0.72701806    -0.77800
C1224       C  0.27461597  0.40935029  0.67629880     0.85700
O1225       O  0.30246761  0.42212449  0.69236552    -0.65000
Ni1226     Ni  0.35060218  0.41211156  0.79995028     1.27400
Ni1227     Ni  0.25429291  0.40842372  0.78325736     1.26100
H1228       H  0.25571500  0.45635515  0.74459415     0.40200
O1229       O  0.94921743  0.50878138  0.94873056    -0.79800
O1230       O  0.96124943  0.50047165  0.59044142    -0.64400
O1231       O  0.98972547  0.51766889  0.00273221    -1.11000
C1232       C  0.02114647  0.38119437  0.51083307     1.07100
O1233       O  0.01404418  0.45808358  0.60000569    -0.77700
O1234       O  0.06838307  0.45157645  0.55547947    -0.65200
Ni1235     Ni  0.96295808  0.55041313  0.97316933     1.34900
C1236       C  0.07929565  0.45882107  0.52896054     0.85900
O1237       O  0.96973355  0.56496881  0.55504974    -0.78200
O1238       O  0.97654629  0.59395063  0.99509047    -0.88500
C1239       C  0.98513014  0.48057168  0.60868820     0.85400
O1240       O  0.90965059  0.55270909  0.98955394    -0.66700
O1241       O  0.03201192  0.38712301  0.53751424    -0.86000
C1242       C  0.89858501  0.53023998  0.51565397     0.86300
C1243       C  0.97288042  0.59404321  0.53697121     1.07800
H1244       H  0.95683794  0.44388773  0.54342023     0.39600
O1245       O  0.98278788  0.45534897  0.54210719    -1.08600
O1246       O  0.04683291  0.45993485  0.00636934    -0.65300
Ni1247     Ni  0.98863834  0.46333376  0.99986185     1.26300
O1248       O  0.91793256  0.51118814  0.53711930    -0.65500
O1249       O  0.98911894  0.40830137  0.99810236    -0.77800
C1250       C  0.97582268  0.48397464  0.93984467     0.85700
O1251       O  0.99977664  0.46537627  0.95828647    -0.65000
Ni1252     Ni  0.02124954  0.42515289  0.56702336     1.27400
Ni1253     Ni  0.97567659  0.50974845  0.54925509     1.26100
H1254       H  0.01768346  0.52451768  0.00201238     0.40200
O1255       O  0.94072119  0.53760870  0.70083502    -0.79800
O1256       O  0.94229340  0.51242511  0.83599531    -0.64400
O1257       O  0.97940067  0.52840470  0.75709410    -1.11000
C1258       C  0.99198657  0.39596894  0.75477777     1.07100
O1259       O  0.99247267  0.46828623  0.84663198    -0.77700
O1260       O  0.04580211  0.46073843  0.80070990    -0.65200
Ni1261     Ni  0.95831562  0.56947883  0.73196324     1.34900
C1262       C  0.05751488  0.46683862  0.77419923     0.85900
O1263       O  0.95846558  0.57602108  0.80477938    -0.78200
O1264       O  0.97460439  0.60417634  0.76101574    -0.88500
C1265       C  0.96416863  0.49206891  0.85471627     0.85400
O1266       O  0.90462463  0.57139011  0.74690749    -0.66700
O1267       O  0.00436233  0.40039676  0.78139612    -0.86000
C1268       C  0.88574492  0.55142141  0.76589146     0.86300
C1269       C  0.96766960  0.60519083  0.78884825     1.07800
H1270       H  0.93469952  0.45957396  0.78878401     0.39600
O1271       O  0.96159870  0.46912437  0.78757512    -1.08600
O1272       O  0.03340021  0.46904370  0.75180078    -0.65300
Ni1273     Ni  0.97532284  0.47639017  0.74654620     1.26300
O1274       O  0.90345771  0.52752710  0.78462730    -0.65500
O1275       O  0.97365910  0.42284890  0.73871640    -0.77800
C1276       C  0.96208336  0.51100242  0.68895017     0.85700
O1277       O  0.98482457  0.48700499  0.70482845    -0.65000
Ni1278     Ni  0.99740166  0.43659679  0.81226763     1.27400
Ni1279     Ni  0.95985963  0.52217580  0.79648399     1.26100
H1280       H  0.00781620  0.53322626  0.75928512     0.40200
C1281       C  0.97928003  0.47643064  0.90790703    -0.15300
C1282       C  0.95788255  0.49766846  0.88674726    -0.30500
H1283       H  0.00144204  0.45391466  0.90160665     0.13700
H1284       H  0.93583418  0.52029774  0.89301952     0.14300
C1285       C  0.98243166  0.48271700  0.64150278    -0.15300
C1286       C  0.95950528  0.50871135  0.65598673    -0.30500
H1287       H  0.00247118  0.46231350  0.65452362     0.13700
H1288       H  0.93977316  0.52981067  0.64342296     0.14300
C1289       C  0.13076250  0.45296160  0.78558993    -0.15300
C1290       C  0.10087818  0.46922895  0.76775351    -0.30500
H1291       H  0.12411773  0.44275605  0.80805736     0.13700
H1292       H  0.10784578  0.47874634  0.74516277     0.14300
C1293       C  0.15375651  0.45480925  0.54059416    -0.15300
C1294       C  0.12220326  0.46392018  0.52182997    -0.30500
H1295       H  0.14886205  0.44953228  0.56421423     0.13700
H1296       H  0.12001157  0.46965026  0.99765382     0.14300
C1297       C  0.27346863  0.40529233  0.87467848    -0.15300
C1298       C  0.29817071  0.41993559  0.89514833    -0.30500
H1299       H  0.24567753  0.39268841  0.88187197     0.13700
H1300       H  0.32611925  0.43212027  0.88779469     0.14300
C1301       C  0.27852402  0.40763391  0.64373541    -0.15300
C1302       C  0.30988860  0.42184722  0.62935592    -0.30500
H1303       H  0.25461285  0.39489813  0.63128066     0.13700
H1304       H  0.33393854  0.43414118  0.64198135     0.14300
C1305       C  0.01300125  0.32817687  0.76101967    -0.15300
C1306       C  0.00278828  0.35830128  0.74219052    -0.30500
H1307       H  0.00659683  0.33047328  0.78458735     0.13700
H1308       H  0.00713800  0.35647070  0.71837074     0.14300
C1309       C  0.17533018  0.29102345  0.76787707    -0.15300
C1310       C  0.20002539  0.30848413  0.74868884    -0.30500
H1311       H  0.17317114  0.30077373  0.79049051     0.13700
H1312       H  0.20051873  0.29888104  0.72597445     0.14300
C1313       C  0.05430105  0.31554666  0.51545731    -0.15300
C1314       C  0.03577292  0.34403890  0.49792579    -0.30500
H1315       H  0.05384382  0.32584680  0.04232977     0.13700
H1316       H  0.03479219  0.34154577  0.47393058     0.14300
C1317       C  0.22262721  0.28973548  0.50275196    -0.15300
C1318       C  0.22838025  0.31494701  0.52398569    -0.30500
H1319       H  0.23421245  0.30033122  0.98433028     0.13700
H1320       H  0.21489139  0.31076823  0.54570922     0.14300
C1321       C  0.07286335  0.21161306  0.87108129    -0.15300
C1322       C  0.07330304  0.18616128  0.89462811    -0.30500
H1323       H  0.07575962  0.24196214  0.87490022     0.13700
H1324       H  0.07137883  0.15573042  0.89064746     0.14300
C1325       C  0.12840915  0.20062375  0.62181375    -0.15300
C1326       C  0.11701167  0.17568470  0.64351816    -0.30500
H1327       H  0.13557893  0.22951339  0.62752213     0.13700
H1328       H  0.10865795  0.14722850  0.63755867     0.14300
C1329       C  0.82229463  0.57341266  0.74169374    -0.15300
C1330       C  0.84124661  0.55826344  0.76638707    -0.30500
H1331       H  0.83908632  0.57486545  0.72101632     0.13700
H1332       H  0.82521911  0.55501408  0.78721609     0.14300
C1333       C  0.83144451  0.55930019  0.52757368    -0.15300
C1334       C  0.85362843  0.53277540  0.51280381    -0.30500
H1335       H  0.83783913  0.55950904  0.97368853     0.13700
H1336       H  0.84116237  0.52333499  0.49202349     0.14300
C1337       C  0.70359796  0.61556911  0.86538603    -0.15300
C1338       C  0.67927572  0.60283212  0.88725185    -0.30500
H1339       H  0.73213550  0.62769876  0.87116227     0.13700
H1340       H  0.65139299  0.58948910  0.88154270     0.14300
C1341       C  0.68965553  0.61636901  0.62002773    -0.15300
C1342       C  0.66474572  0.59972818  0.63931740    -0.30500
H1343       H  0.71645978  0.62973191  0.62810909     0.13700
H1344       H  0.63767907  0.58642853  0.63173335     0.14300
C1345       C  0.98390828  0.67180582  0.78761134    -0.15300
C1346       C  0.96644463  0.64310768  0.80218075    -0.30500
H1347       H  0.00832414  0.66429837  0.77242820     0.13700
H1348       H  0.94190306  0.64955980  0.81748237     0.14300
C1349       C  0.81314236  0.72244752  0.77335676    -0.15300
C1350       C  0.78279755  0.72332354  0.75294319    -0.30500
H1351       H  0.81203405  0.70374453  0.79321457     0.13700
H1352       H  0.78561888  0.74234475  0.73336519     0.14300
C1353       C  0.93022781  0.65216396  0.53838492    -0.15300
C1354       C  0.96570687  0.63370837  0.54704373    -0.30500
H1355       H  0.90627782  0.63480301  0.53032655     0.13700
H1356       H  0.99172357  0.65003653  0.55234872     0.14300
C1357       C  0.80017082  0.74019884  0.50661576    -0.15300
C1358       C  0.78914798  0.71390685  0.52702000    -0.30500
H1359       H  0.78471702  0.74169875  0.48501760     0.13700
H1360       H  0.80404195  0.71108773  0.54875922     0.14300
C1361       C  0.92352199  0.82023835  0.90224075    -0.15300
C1362       C  0.91573635  0.79483062  0.88159508    -0.30500
H1363       H  0.93111198  0.84933036  0.89574304     0.13700
H1364       H  0.90873369  0.76556875  0.88809749     0.14300
C1365       C  0.90875937  0.78595528  0.63252576    -0.15300
C1366       C  0.91665726  0.81365265  0.65151135    -0.30500
H1367       H  0.89584866  0.75956797  0.64059897     0.13700
H1368       H  0.92915481  0.84014181  0.64318911     0.14300
C1369       C  0.12877847  0.04648611  0.74442277    -0.15300
C1370       C  0.12568313  0.01694197  0.76430070    -0.30500
H1371       H  0.14283669  0.04173267  0.72304804     0.13700
H1372       H  0.11388507  0.02274025  0.78625708     0.14300
C1373       C  0.05716872  0.87296040  0.78673128    -0.15300
C1374       C  0.02847490  0.86837729  0.76545753    -0.30500
H1375       H  0.05035878  0.86846911  0.81013701     0.13700
H1376       H  0.03663177  0.87152594  0.74217431     0.14300
C1377       C  0.13575134  0.05762664  0.50846996    -0.15300
C1378       C  0.13479049  0.02633009  0.52741540    -0.30500
H1379       H  0.14605973  0.05354418  0.48589659     0.13700
H1380       H  0.12515518  0.03043438  0.55014864     0.14300
C1381       C  0.22611851  0.92001191  0.90472215    -0.15300
C1382       C  0.19774551  0.92284770  0.88260778    -0.30500
H1383       H  0.25756208  0.91199415  0.89959848     0.13700
H1384       H  0.16622721  0.92996369  0.88811188     0.14300
C1385       C  0.19001535  0.89503698  0.63325948    -0.15300
C1386       C  0.22016205  0.89191000  0.65390425    -0.30500
H1387       H  0.15936293  0.90399522  0.63985244     0.13700
H1388       H  0.25104677  0.88339248  0.64762171     0.14300
C1389       C  0.05010106  0.88235401  0.53576563    -0.15300
C1390       C  0.02240755  0.87496321  0.51488847    -0.30500
H1391       H  0.04427557  0.87627738  0.55916509     0.13700
H1392       H  0.02989908  0.87873398  0.49150697     0.14300
C1393       C  0.51481679  0.61060225  0.76761955    -0.15300
C1394       C  0.54727006  0.62027312  0.75201562    -0.30500
H1395       H  0.51907029  0.59433941  0.78868240     0.13700
H1396       H  0.54259321  0.63716944  0.73124706     0.14300
C1397       C  0.31488855  0.82292832  0.78199613    -0.15300
C1398       C  0.32184583  0.79816407  0.75984377    -0.30500
H1399       H  0.33235013  0.81842620  0.80264711     0.13700
H1400       H  0.30494613  0.80201251  0.73893668     0.14300
C1401       C  0.35677103  0.54613752  0.77258238    -0.15300
C1402       C  0.35013258  0.51939009  0.75237811    -0.30500
H1403       H  0.35116987  0.53991433  0.79598664     0.13700
H1404       H  0.35379964  0.52697788  0.72891639     0.14300
C1405       C  0.56126511  0.61745873  0.49597020    -0.15300
C1406       C  0.52977159  0.62059937  0.51484252    -0.30500
H1407       H  0.55110811  0.63211056  0.97376601     0.13700
H1408       H  0.53507724  0.61270640  0.53826234     0.14300
C1409       C  0.29790517  0.81370129  0.50261970    -0.15300
C1410       C  0.30754347  0.78077053  0.51865165    -0.30500
H1411       H  0.31189606  0.80655382  0.04964809     0.13700
H1412       H  0.29297358  0.77726936  0.54007426     0.14300
C1413       C  0.40416069  0.70577490  0.88764399    -0.15300
C1414       C  0.40608027  0.67579216  0.86966334    -0.30500
H1415       H  0.39482346  0.73455455  0.87887499     0.13700
H1416       H  0.41455361  0.64690362  0.87862043     0.14300
C1417       C  0.42424807  0.68377687  0.62073601    -0.15300
C1418       C  0.41523532  0.70953502  0.64173994    -0.30500
H1419       H  0.43002722  0.65347116  0.62711440     0.13700
H1420       H  0.40759199  0.73956169  0.63531279     0.14300
C1421       C  0.37428349  0.55446614  0.52559493    -0.15300
C1422       C  0.36719341  0.52821085  0.50504022    -0.30500
H1423       H  0.37054293  0.54758282  0.54914036     0.13700
H1424       H  0.36076639  0.54178989  0.98007072     0.14300
C1425       C  0.46487063  0.84257126  0.72179128    -0.15300
C1426       C  0.47907731  0.81720502  0.74339505    -0.30500
H1427       H  0.44504261  0.83389904  0.70412303     0.13700
H1428       H  0.49826120  0.82779012  0.76079299     0.14300
C1429       C  0.36120349  0.99422045  0.72504154    -0.15300
C1430       C  0.32371052  0.99191047  0.73627564    -0.30500
H1431       H  0.36449179  0.01741376  0.70846694     0.13700
H1432       H  0.30112096  0.01366307  0.72755046     0.14300
C1433       C  0.43905935  0.83907670  0.96861951    -0.15300
C1434       C  0.47578213  0.85114298  0.96173912    -0.30500
H1435       H  0.41467598  0.86059159  0.97298120     0.13700
H1436       H  0.49373688  0.83278774  0.45631832     0.14300
C1437       C  0.37232530  0.96800677  0.98706889    -0.15300
C1438       C  0.35060437  0.97471156  0.01136716    -0.30500
H1439       H  0.35864286  0.95541105  0.96792129     0.13700
H1440       H  0.36213078  0.96976300  0.53579178     0.14300
C1441       C  0.48575488  0.98125272  0.86660766    -0.15300
C1442       C  0.49828604  0.00405868  0.84442889    -0.30500
H1443       H  0.46738575  0.95720340  0.86196449     0.13700
H1444       H  0.51735529  0.02762388  0.84900253     0.14300
C1445       C  0.49571882  0.97589954  0.61837290    -0.15300
C1446       C  0.51119363  0.99939072  0.59741553    -0.30500
H1447       H  0.47734720  0.95255718  0.61203044     0.13700
H1448       H  0.52801428  0.02381739  0.60366052     0.14300
C1449       C  0.43457465  0.37775108  0.73152120    -0.15300
C1450       C  0.46763248  0.37347697  0.74955263    -0.30500
H1451       H  0.43721420  0.37181362  0.70807046     0.13700
H1452       H  0.46371003  0.37842208  0.77309600     0.14300
C1453       C  0.51320395  0.13517382  0.74614435    -0.15300
C1454       C  0.52418094  0.16413496  0.72783947    -0.30500
H1455       H  0.51233101  0.13888453  0.77002217     0.13700
H1456       H  0.52561666  0.16025417  0.70400261     0.14300
C1457       C  0.62048126  0.47145513  0.74343721    -0.15300
C1458       C  0.61881266  0.44083741  0.76271573    -0.30500
H1459       H  0.61292792  0.46832757  0.72009527     0.13700
H1460       H  0.62813448  0.44326503  0.78579558     0.14300
C1461       C  0.48855971  0.38168604  0.50102089    -0.15300
C1462       C  0.45551067  0.38395938  0.48315096    -0.30500
H1463       H  0.47661482  0.39696446  0.01960652     0.13700
H1464       H  0.45714701  0.37351209  0.46072279     0.14300
C1465       C  0.50682594  0.14084504  0.99615494    -0.15300
C1466       C  0.52208452  0.16831147  0.97835632    -0.30500
H1467       H  0.51345640  0.14336666  0.52548382     0.13700
H1468       H  0.52695526  0.16304907  0.95495934     0.14300
C1469       C  0.58973331  0.28331113  0.88240496    -0.15300
C1470       C  0.58180998  0.31032523  0.86050133    -0.30500
H1471       H  0.59935683  0.25395272  0.87720788     0.13700
H1472       H  0.57279693  0.33976288  0.86590216     0.14300
C1473       C  0.59510667  0.31121519  0.61075059    -0.15300
C1474       C  0.59341065  0.28390092  0.63260937    -0.30500
H1475       H  0.59023324  0.34138462  0.61589983     0.13700
H1476       H  0.59887304  0.25371385  0.62771733     0.14300
C1477       C  0.64230571  0.43466032  0.51370816    -0.15300
C1478       C  0.64095577  0.46577804  0.49498138    -0.30500
H1479       H  0.65293424  0.43637555  0.53656967     0.13700
H1480       H  0.62836544  0.46652767  0.96480183     0.14300
C1481       C  0.87917446  0.95355721  0.73668198    -0.15300
C1482       C  0.87820934  0.98432325  0.75384644    -0.30500
H1483       H  0.87007907  0.95681714  0.71336219     0.13700
H1484       H  0.88540119  0.98026010  0.77747364     0.14300
C1485       C  0.62552790  0.01932203  0.73756482    -0.15300
C1486       C  0.65428872  0.03204678  0.71925046    -0.30500
H1487       H  0.63273958  0.01422291  0.76110980     0.13700
H1488       H  0.64794467  0.03598060  0.69551335     0.14300
C1489       C  0.68096469  0.20174237  0.75852464    -0.15300
C1490       C  0.69514104  0.18089395  0.73583125    -0.30500
H1491       H  0.69319950  0.19444478  0.78075194     0.13700
H1492       H  0.68305444  0.18700787  0.71343442     0.14300
C1493       C  0.94382408  0.13117481  0.76324426    -0.15300
C1494       C  0.97685760  0.13225668  0.74583906    -0.30500
H1495       H  0.94588496  0.13893393  0.78635247     0.13700
H1496       H  0.97380797  0.12571971  0.72250929     0.14300
C1497       C  0.86749583  0.96989180  0.48160839    -0.15300
C1498       C  0.86654098  0.94974468  0.50771624    -0.30500
H1499       H  0.87698626  0.95577924  0.46150981     0.13700
H1500       H  0.86994347  0.95616341  0.96263478     0.14300
C1501       C  0.65286303  0.03810202  0.96771557    -0.15300
C1502       C  0.62324230  0.02877608  0.98626823    -0.30500
H1503       H  0.64766043  0.03984792  0.94377397     0.13700
H1504       H  0.62942356  0.02672793  0.01012752     0.14300
C1505       C  0.67931433  0.19357666  0.49341247    -0.15300
C1506       C  0.69620547  0.16902314  0.51451955    -0.30500
H1507       H  0.68848140  0.19254174  0.03536872     0.13700
H1508       H  0.68677620  0.17205777  0.53743630     0.14300
C1509       C  0.78240451  0.09197101  0.87740020    -0.15300
C1510       C  0.81045476  0.09065483  0.85599239    -0.30500
H1511       H  0.75030305  0.09597497  0.87145891     0.13700
H1512       H  0.84255247  0.08676233  0.86197478     0.14300
C1513       C  0.81151259  0.06388085  0.60622125    -0.15300
C1514       C  0.78396812  0.07511023  0.62647354    -0.30500
H1515       H  0.84285960  0.05616310  0.61290041     0.13700
H1516       H  0.75265677  0.08284572  0.61969325     0.14300
C1517       C  0.94602157  0.10758793  0.51999078    -0.15300
C1518       C  0.97692527  0.11369873  0.50157392    -0.30500
H1519       H  0.94864173  0.11365866  0.54343006     0.13700
H1520       H  0.97243468  0.11155989  0.97889108     0.14300
loop_ 
_geom_bond_atom_site_label_1 
_geom_bond_atom_site_label_2 
_geom_bond_distance 
_geom_bond_site_symmetry_2 
_ccdc_geom_bond_type 
O1           Ni7   1.925       .  S
O1           C22   1.269       .  A
O2          Ni25   1.907       .  S
O2           C11   1.271       .  A
O3           Ni7   1.915       .  S
O3          Ni19   1.913       .  S
O3         Ni785   1.919   1_554  S
O3           H26   0.966       .  S
C4           O21   1.267       .  A
C4          O773   1.275   1_554  A
C4          C757   1.469       .  S
O5          Ni24   1.921       .  S
O5           C11   1.275       .  A
O6          Ni24   1.919       .  S
O6            C8   1.267       .  A
Ni7          O10   1.916       .  S
Ni7          O12   1.902       .  S
C8          O778   1.274       .  A
C8         C1497   1.488   1_545  S
O9          Ni25   1.924       .  S
O9           C15   1.275       .  A
O10         C775   1.272   1_554  A
C11         C749   1.476       .  S
O12          C14   1.271   1_554  A
O13         Ni24   1.939       .  S
O13         C764   1.279       .  A
C14         O780   1.275       .  A
C14         C746   1.486       .  S
C15         O770   1.275       .  A
C15         C741   1.474       .  S
H16          O17   0.966       .  S
O17         Ni25   1.913       .  S
O17         Ni24   1.907       .  S
O17        Ni779   1.901       .  S
O18         Ni19   1.922       .  S
O18         C768   1.268   1_554  A
Ni19         O23   1.896       .  S
Ni19         O21   1.898       .  S
Ni19        O777   1.906   1_554  S
O20         Ni25   1.948       .  S
O20         C774   1.279       .  A
C22          O23   1.261       .  A
C22         C753   1.471       .  S
Ni25        O763   1.903       .  S
O27         Ni33   1.928       .  S
O27          C48   1.270       .  A
O28         Ni51   1.890       .  S
O28          C37   1.264       .  A
O29         Ni33   1.909       .  S
O29         Ni51   1.904       .  S
O29         Ni45   1.920       .  S
O29          H52   0.966       .  S
C30          O47   1.275       .  A
C30          O39   1.278       .  A
C30         C733   1.487       .  S
O31         Ni50   1.935       .  S
O31          C37   1.275       .  A
O32         Ni50   1.920       .  S
O32          C34   1.271       .  A
Ni33         O36   1.927       .  S
Ni33         O38   1.900       .  S
C34          O44   1.267       .  A
C34         C722   1.471   1_545  S
O35         Ni51   1.919       .  S
O35          C41   1.272       .  A
O36          C41   1.276       .  A
C37         C754   1.471       .  S
O38          C40   1.271       .  A
O39         Ni50   1.937       .  S
C40          O46   1.273       .  A
C40         C730   1.485       .  S
C41         C726   1.482       .  S
H42          O43   0.966       .  S
O43         Ni51   1.914       .  S
O43         Ni45   1.906       .  S
O43         Ni50   1.917       .  S
O44         Ni45   1.924       .  S
Ni45         O49   1.896       .  S
Ni45         O47   1.919       .  S
O46         Ni51   1.935       .  S
C48          O49   1.265       .  A
C48         C750   1.466       .  S
O53         Ni59   1.910       .  S
O53          C74   1.268       .  A
O54         Ni77   1.908       .  S
O54          C63   1.266       .  A
O55         Ni59   1.923       .  S
O55         Ni71   1.922       .  S
O55        Ni837   1.913       .  S
O55          H78   0.966       .  S
C56          O73   1.273       .  A
C56         O825   1.274       .  A
C56         C706   1.475       .  S
O57         Ni76   1.918       .  S
O57          C63   1.267       .  A
O58         Ni76   1.897       .  S
O58          C60   1.268       .  A
Ni59         O62   1.920       .  S
Ni59         O64   1.912       .  S
C60         O830   1.278   1_554  A
C60         C745   1.475       .  S
O61         Ni77   1.914       .  S
O61          C67   1.279   1_554  A
O62         C827   1.271       .  A
C63         C713   1.471       .  S
O64         C826   1.270       .  A
O65         Ni76   1.921       .  S
O65         C816   1.274   1_554  A
C66          O72   1.262   1_556  A
C66         O824   1.268       .  A
C66         C701   1.465       .  S
C67         O822   1.278       .  A
C67         C717   1.475   1_556  S
H68          O69   0.966       .  S
O69         Ni77   1.923       .  S
O69         Ni76   1.905       .  S
O69        Ni831   1.908   1_554  S
O70         Ni71   1.932       .  S
O70         C820   1.272       .  A
Ni71         O75   1.907       .  S
Ni71         O73   1.913       .  S
Ni71        O829   1.907       .  S
O72         Ni77   1.905       .  S
C74          O75   1.268       .  A
C74         C709   1.472       .  S
Ni77        O815   1.899   1_554  S
O79         Ni85   1.930       .  S
O79         C100   1.275       .  A
O80        Ni103   1.906       .  S
O80          C89   1.266       .  A
O81         Ni85   1.909       .  S
O81        Ni103   1.894       .  S
O81         Ni97   1.902       .  S
O81         H104   0.967       .  S
C82          O99   1.273       .  A
C82          O91   1.272       .  A
C82         C694   1.476       .  S
O83        Ni102   1.917       .  S
O83          C89   1.267       .  A
O84        Ni102   1.896       .  S
O84          C86   1.268       .  A
Ni85         O88   1.939       .  S
Ni85         O90   1.927       .  S
C86          O96   1.277       .  A
C86         C729   1.471       .  S
O87        Ni103   1.911       .  S
O87          C93   1.277       .  A
O88          C93   1.280       .  A
C89         C710   1.468       .  S
O90          C92   1.269       .  A
O91        Ni102   1.917       .  S
C92          O98   1.265       .  A
C92         C690   1.471       .  S
C93         C698   1.477       .  S
H94          O95   0.966       .  S
O95        Ni103   1.923       .  S
O95         Ni97   1.910       .  S
O95        Ni102   1.906       .  S
O96         Ni97   1.942       .  S
Ni97        O101   1.899       .  S
Ni97         O99   1.919       .  S
O98        Ni103   1.914       .  S
C100        O101   1.269       .  A
C100        C714   1.470       .  S
O105       Ni111   1.884       .  S
O105        C126   1.262       .  A
O106       Ni129   1.894       .  S
O106        C115   1.264       .  A
O107       Ni111   1.902   1_556  S
O107       Ni123   1.935   1_566  S
O107       Ni889   1.907       .  S
O107        H130   0.966   1_556  S
C108        O117   1.273       .  A
C108        O885   1.271       .  A
C108        C705   1.477       .  S
O109       Ni128   1.924       .  S
O109        C115   1.270   1_545  A
O110       Ni128   1.908       .  S
O110        C112   1.269       .  A
Ni111       O114   1.900   1_554  S
Ni111       O116   1.897       .  S
C112        O882   1.268       .  A
C112        C742   1.464       .  S
O113       Ni129   1.923       .  S
O113        C119   1.267       .  A
O114        C879   1.264       .  A
C115        C681   1.467       .  S
O116        C878   1.273   1_554  A
O117       Ni128   1.920       .  S
C118        O124   1.277       .  A
C118        O876   1.270       .  A
C118        C677   1.477       .  S
C119        O874   1.266       .  A
C119        C674   1.471       .  S
H120        O121   0.966       .  S
O121       Ni129   1.911   1_545  S
O121       Ni128   1.923       .  S
O121       Ni883   1.913       .  S
O122       Ni123   1.910   1_556  S
O122        C872   1.266       .  A
Ni123       O127   1.914       .  S
Ni123       O125   1.911       .  S
Ni123       O881   1.901   1_554  S
O124       Ni129   1.957       .  S
O125        C868   1.273   1_554  A
C126        O127   1.267   1_565  A
C126        C686   1.468   1_565  S
Ni129       O867   1.912       .  S
O131       Ni137   1.907       .  S
O131        C152   1.266       .  A
O132       Ni155   1.890       .  S
O132        C141   1.265       .  A
O133       Ni137   1.911       .  S
O133       Ni155   1.916       .  S
O133       Ni149   1.938   1_565  S
O133        H156   0.966       .  S
C134        O151   1.274       .  A
C134        O143   1.275       .  A
C134        C693   1.478       .  S
O135       Ni154   1.919       .  S
O135        C141   1.269   1_545  A
O136       Ni154   1.916       .  S
O136        C138   1.270       .  A
Ni137       O140   1.918       .  S
Ni137       O142   1.896       .  S
C138        O148   1.269       .  A
C138        C725   1.479       .  S
O139       Ni155   1.925       .  S
O139        C145   1.269       .  A
O140        C145   1.267       .  A
C141        C685   1.456       .  S
O142        C144   1.272       .  A
O143       Ni154   1.921       .  S
C144        O150   1.280       .  A
C144        C669   1.483       .  S
C145        C665   1.474       .  S
H146        O147   0.966       .  S
O147       Ni155   1.906   1_545  S
O147       Ni149   1.896       .  S
O147       Ni154   1.919       .  S
O148       Ni149   1.922       .  S
Ni149       O153   1.901       .  S
Ni149       O151   1.917       .  S
O150       Ni155   1.963       .  S
C152        O153   1.264   1_565  A
C152        C682   1.469   1_565  S
O157       Ni163   1.924       .  S
O157        C178   1.270       .  A
O158       Ni181   1.900       .  S
O158        C167   1.267       .  A
O159       Ni163   1.918       .  S
O159       Ni175   1.888       .  S
O159       Ni941   1.898       .  S
O159        H182   0.967       .  S
C160        O177   1.258       .  A
C160        O929   1.269       .  A
C160        C673   1.459       .  S
O161       Ni180   1.917       .  S
O161        C167   1.269       .  A
O162       Ni180   1.895       .  S
O162        C164   1.268       .  A
Ni163       O166   1.921       .  S
Ni163       O168   1.928       .  S
C164        O934   1.284   1_554  A
C164        C650   1.501       .  S
O165       Ni181   1.923       .  S
O165        C171   1.277       .  A
O166        C931   1.277       .  A
C167        C657   1.469       .  S
O168        C930   1.269       .  A
O169       Ni180   1.933       .  S
O169        C920   1.271   1_554  A
C170        O176   1.269       .  A
C170        O928   1.270   1_554  A
C170        C646   1.487       .  S
C171        O926   1.275   1_554  A
C171        C661   1.477       .  S
H172        O173   0.966       .  S
O173       Ni181   1.939       .  S
O173       Ni180   1.917       .  S
O173       Ni935   1.923   1_554  S
O174       Ni175   2.013       .  S
O174        C924   1.297       .  A
Ni175       O179   1.920       .  S
Ni175       O177   1.900       .  S
Ni175       O933   1.928       .  S
O176       Ni181   1.934       .  S
C178        O179   1.273       .  A
C178        C653   1.482       .  S
Ni181       O919   1.902   1_554  S
O183       Ni189   1.920       .  S
O183        C204   1.271       .  A
O184       Ni207   1.930       .  S
O184        C193   1.276       .  A
O185       Ni189   1.915       .  S
O185       Ni207   1.924       .  S
O185       Ni201   1.935       .  S
O185        H208   0.966       .  S
C186        O203   1.283       .  A
C186        O195   1.276       .  A
C186        C666   1.474       .  S
O187       Ni206   1.915       .  S
O187        C193   1.269       .  A
O188       Ni206   1.910       .  S
O188        C190   1.270       .  A
Ni189       O192   1.929       .  S
Ni189       O194   1.911       .  S
C190        O200   1.276       .  A
C190        C638   1.496       .  S
O191       Ni207   1.938       .  S
O191        C197   1.278       .  A
O192        C197   1.274       .  A
C193        C654   1.482       .  S
O194        C196   1.269       .  A
O195       Ni206   1.910       .  S
C196        O202   1.279       .  A
C196        C633   1.491       .  S
C197        C641   1.498       .  S
H198        O199   0.966       .  S
O199       Ni207   1.910       .  S
O199       Ni201   1.892       .  S
O199       Ni206   1.884       .  S
O200       Ni201   1.947       .  S
Ni201       O205   1.908       .  S
Ni201       O203   1.947       .  S
O202       Ni207   1.952       .  S
C204        O205   1.268       .  A
C204        C658   1.474       .  S
O209       Ni215   1.909       .  S
O209        C230   1.264       .  A
O210       Ni233   1.903       .  S
O210        C219   1.266       .  A
O211       Ni215   1.895       .  S
O211       Ni227   1.899       .  S
O211       Ni993   1.906   1_554  S
O211        H234   0.966       .  S
C212        O229   1.270       .  A
C212        O981   1.282       .  A
C212        C629   1.482       .  S
O213       Ni232   1.923       .  S
O213        C219   1.272       .  A
O214       Ni232   1.929       .  S
O214        C976   1.275       .  A
Ni215       O218   1.894       .  S
Ni215       O220   1.907       .  S
C216        O226   1.274       .  A
C216        O974   1.275   1_554  A
C216        C618   1.499   1_565  S
O217       Ni233   1.921       .  S
O217        C223   1.277       .  A
O218        C983   1.270       .  A
C219        C621   1.477       .  S
O220        C222   1.269       .  A
O221       Ni232   1.937       .  S
O221        C972   1.273       .  A
C222        O988   1.277       .  A
C222        C649   1.490       .  S
C223        O978   1.275       .  A
C223        C678   1.463       .  S
H224        O225   0.966       .  S
O225       Ni233   1.934       .  S
O225       Ni232   1.927       .  S
O225       Ni987   1.916       .  S
O226       Ni227   1.945       .  S
Ni227       O231   1.913       .  S
Ni227       O229   1.901       .  S
Ni227       O985   1.914       .  S
O228       Ni233   1.939       .  S
O228        C982   1.271       .  A
C230        O231   1.268       .  A
C230        C625   1.468       .  S
Ni233       O971   1.902       .  S
O235       Ni241   1.919       .  S
O235        C256   1.269       .  A
O236       Ni259   1.922       .  S
O236        C245   1.273       .  A
O237       Ni241   1.896       .  S
O237       Ni259   1.912       .  S
O237       Ni253   1.915       .  S
O237        H260   0.966       .  S
C238        O255   1.274       .  A
C238        O247   1.274       .  A
C238        C613   1.486       .  S
O239       Ni258   1.906       .  S
O239        C245   1.267       .  A
O240       Ni258   1.912       .  S
O240        C242   1.265       .  A
Ni241       O244   1.904       .  S
Ni241       O246   1.909       .  S
C242        O252   1.268       .  A
C242        C610   1.470   1_565  S
O243       Ni259   1.943       .  S
O243        C249   1.281       .  A
O244        C249   1.272       .  A
C245        C626   1.478       .  S
O246        C248   1.271       .  A
O247       Ni258   1.926       .  S
C248        O254   1.279       .  A
C248        C637   1.488       .  S
C249        C670   1.473       .  S
H250        O251   0.966       .  S
O251       Ni259   1.927       .  S
O251       Ni253   1.915       .  S
O251       Ni258   1.919       .  S
O252       Ni253   1.928       .  S
Ni253       O257   1.908       .  S
Ni253       O255   1.922       .  S
O254       Ni259   1.952       .  S
C256        O257   1.265       .  A
C256        C622   1.473       .  S
O261       Ni267   1.925       .  S
O261        C282   1.273       .  A
O262       Ni285   1.919       .  S
O262        C271   1.272       .  A
O263       Ni267   1.913       .  S
O263       Ni279   1.913       .  S
O263      Ni1045   1.900   1_554  S
O263        H286   0.966       .  S
C264        O281   1.275       .  A
C264        O273   1.270       .  A
C264        C593   1.480       .  S
O265       Ni284   1.899       .  S
O265        C271   1.266       .  A
O266       Ni284   1.890       .  S
O266       C1028   1.265       .  A
Ni267       O270   1.928       .  S
Ni267       O272   1.921       .  S
C268        O278   1.275       .  A
C268       O1026   1.267   1_554  A
C268        C597   1.473       .  S
O269       Ni285   1.944       .  S
O269       C1035   1.283       .  A
O270        C275   1.279   1_554  A
C271        C601   1.474       .  S
O272        C274   1.269       .  A
O273      Ni1044   1.900   1_554  S
C274       O1040   1.267   1_554  A
C274        C630   1.480   1_655  S
C275       O1029   1.272       .  A
C275        C738   1.483       .  S
H276        O277   0.966       .  S
O277       Ni285   1.952       .  S
O277       Ni284   1.913       .  S
O277      Ni1039   1.922       .  S
O278       Ni279   1.946       .  S
Ni279       O283   1.903       .  S
Ni279       O281   1.935       .  S
Ni279      O1037   1.925       .  S
O280       Ni285   1.923       .  S
O280       C1034   1.270       .  A
C282        O283   1.268       .  A
C282        C605   1.470       .  S
Ni284      O1033   1.930       .  S
Ni285      O1023   1.902       .  S
O287       Ni293   1.919       .  S
O287        C308   1.271       .  A
O288       Ni311   1.907       .  S
O288        C297   1.263       .  A
O289       Ni293   1.919       .  S
O289       Ni311   1.912       .  S
O289       Ni305   1.930       .  S
O289        H312   0.966       .  S
C290        O307   1.282       .  A
C290        O299   1.272       .  A
C290        C585   1.469       .  S
O291       Ni310   1.913       .  S
O291        C297   1.265       .  A
O292       Ni310   1.899       .  S
O292        C294   1.267       .  A
Ni293       O296   1.941       .  S
Ni293       O298   1.912       .  S
C294        O304   1.276       .  A
C294        C589   1.479       .  S
O295       Ni311   1.898       .  S
O295        C301   1.265       .  A
O296        C301   1.277       .  A
C297        C606   1.469       .  S
O298        C300   1.268       .  A
O299       Ni310   1.901       .  S
C300        O306   1.274       .  A
C300        C614   1.477   1_655  S
C301        C721   1.478       .  S
H302        O303   0.966       .  S
O303       Ni311   1.902       .  S
O303       Ni305   1.905       .  S
O303       Ni310   1.896       .  S
O304       Ni305   1.951       .  S
Ni305       O309   1.908       .  S
Ni305       O307   1.946       .  S
O306       Ni311   1.940       .  S
C308        O309   1.273       .  A
C308        C602   1.471       .  S
O313       Ni319   1.932       .  S
O313        C334   1.273       .  A
O314       Ni337   1.889       .  S
O314        C323   1.265       .  A
O315       Ni319   1.912       .  S
O315       Ni331   1.899       .  S
O315      Ni1097   1.901   1_554  S
O315        H338   0.966       .  S
C316        O333   1.270       .  A
C316       O1085   1.269   1_554  A
C316        C598   1.485       .  S
O317       Ni336   1.952       .  S
O317        C323   1.279       .  A
O318       Ni336   1.939       .  S
O318       C1080   1.276       .  A
Ni319       O322   1.915       .  S
Ni319       O324   1.928       .  S
C320        O330   1.289   1_556  A
C320       O1078   1.272       .  A
C320        C573   1.489       .  S
O321       Ni337   1.910       .  S
O321       C1087   1.273       .  A
O322        C327   1.276   1_554  A
C323        C578   1.479       .  S
O324        C326   1.273       .  A
O325       Ni336   1.943       .  S
O325       C1076   1.281       .  A
C326       O1092   1.269   1_554  A
C326        C645   1.488   1_554  S
C327       O1081   1.280       .  A
C327        C718   1.475       .  S
H328        O329   0.966       .  S
O329       Ni337   1.906       .  S
O329       Ni336   1.910       .  S
O329      Ni1091   1.905       .  S
O330       Ni331   1.984       .  S
Ni331       O335   1.928       .  S
Ni331       O333   1.925       .  S
Ni331      O1089   1.936   1_554  S
O332       Ni337   1.937       .  S
O332       C1086   1.274       .  A
C334        O335   1.279       .  A
C334        C581   1.490       .  S
Ni337      O1075   1.892       .  S
O339       Ni345   1.932       .  S
O339        C360   1.274       .  A
O340       Ni363   1.945       .  S
O340        C349   1.278       .  A
O341       Ni345   1.903       .  S
O341       Ni363   1.908       .  S
O341       Ni357   1.906       .  S
O341        H364   0.966       .  S
C342        O359   1.271       .  A
C342        O351   1.269       .  A
C342        C590   1.493       .  S
O343       Ni362   1.909       .  S
O343        C349   1.266       .  A
O344       Ni362   1.904       .  S
O344        C346   1.269       .  A
Ni345       O348   1.919       .  S
Ni345       O350   1.911       .  S
C346        O356   1.274       .  A
C346        C569   1.474       .  S
O347       Ni363   1.929       .  S
O347        C353   1.280       .  A
O348        C353   1.277       .  A
C349        C582   1.498       .  S
O350        C352   1.270       .  A
O351       Ni362   1.913       .  S
C352        O358   1.282       .  A
C352        C634   1.489       .  S
C353        C697   1.479       .  S
H354        O355   0.966       .  S
O355       Ni363   1.945       .  S
O355       Ni357   1.939       .  S
O355       Ni362   1.926       .  S
O356       Ni357   1.936       .  S
Ni357       O361   1.910       .  S
Ni357       O359   1.930       .  S
O358       Ni363   1.954       .  S
C360        O361   1.266       .  A
C360        C577   1.482       .  S
O365       Ni371   1.931       .  S
O365        C386   1.271       .  A
O366       Ni389   1.926       .  S
O366        C375   1.274       .  A
O367       Ni371   1.918       .  S
O367       Ni383   1.904       .  S
O367      Ni1149   1.912       .  S
O367        H390   0.966       .  S
C368        O385   1.270       .  A
C368       O1137   1.278       .  A
C368       C1518   1.470   1_455  S
O369       Ni388   1.935       .  S
O369        C375   1.278       .  A
O370       Ni388   1.937       .  S
O370        C372   1.277       .  A
Ni371       O374   1.911       .  S
Ni371       O376   1.929       .  S
C372       O1142   1.277   1_554  A
C372        C617   1.502       .  S
O373       Ni389   1.933       .  S
O373        C379   1.282       .  A
O374       C1139   1.274       .  A
C375        C565   1.495       .  S
O376       C1138   1.271       .  A
O377       Ni388   1.924       .  S
O377       C1128   1.276       .  A
C378        O384   1.271       .  A
C378       O1136   1.275   1_554  A
C378        C553   1.493       .  S
C379       O1134   1.276   1_554  A
C379        C557   1.471       .  S
H380        O381   0.966       .  S
O381       Ni389   1.919       .  S
O381       Ni388   1.907       .  S
O381      Ni1143   1.904   1_554  S
O382       Ni383   1.946       .  S
O382       C1132   1.280       .  A
Ni383       O387   1.911       .  S
Ni383       O385   1.903       .  S
Ni383      O1141   1.900       .  S
O384       Ni389   1.930       .  S
C386        O387   1.269       .  A
C386        C562   1.481       .  S
Ni389      O1127   1.917   1_554  S
O391       Ni397   1.922       .  S
O391        C412   1.270       .  A
O392       Ni415   1.915       .  S
O392        C401   1.271       .  A
O393       Ni397   1.926       .  S
O393       Ni415   1.922       .  S
O393       Ni409   1.921       .  S
O393        H416   0.966       .  S
C394        O411   1.271       .  A
C394        O403   1.280       .  A
C394        C545   1.467       .  S
O395       Ni414   1.952       .  S
O395        C401   1.279       .  A
O396       Ni414   1.925       .  S
O396        C398   1.276       .  A
Ni397       O400   1.925       .  S
Ni397       O402   1.916       .  S
C398        O408   1.276       .  A
C398        C549   1.501       .  S
O399       Ni415   1.914       .  S
O399        C405   1.269       .  A
O400        C405   1.272       .  A
C401        C566   1.495       .  S
O402        C404   1.273       .  A
O403       Ni414   1.938       .  S
C404        O410   1.279       .  A
C404        C734   1.480   1_455  S
C405        C609   1.479       .  S
H406        O407   0.966       .  S
O407       Ni415   1.901       .  S
O407       Ni409   1.903       .  S
O407       Ni414   1.908       .  S
O408       Ni409   1.944       .  S
Ni409       O413   1.916       .  S
Ni409       O411   1.896       .  S
O410       Ni415   1.952       .  S
C412        O413   1.269       .  A
C412        C561   1.484       .  S
O417       Ni423   1.941       .  S
O417        C438   1.271       .  A
O418       Ni441   1.929       .  S
O418        C427   1.275       .  A
O419       Ni423   1.916       .  S
O419       Ni435   1.903       .  S
O419      Ni1201   1.925       .  S
O419        H442   0.966       .  S
C420        O437   1.265       .  A
C420       O1189   1.272       .  A
C420       C1462   1.475       .  S
O421       Ni440   1.914       .  S
O421        C427   1.266       .  A
O422       Ni440   1.899       .  S
O422        C424   1.268       .  A
Ni423       O426   1.917       .  S
Ni423       O428   1.912       .  S
C424       O1194   1.279   1_554  A
C424        C662   1.473       .  S
O425       Ni441   1.922       .  S
O425        C431   1.274       .  A
O426       C1191   1.275       .  A
C427        C542   1.483       .  S
O428       C1190   1.273       .  A
O429       Ni440   1.929       .  S
O429       C1180   1.272   1_554  A
C430        O436   1.273       .  A
C430       O1188   1.273   1_554  A
C430        C558   1.484       .  S
C431       O1186   1.276       .  A
C431        C533   1.484       .  S
H432        O433   0.966       .  S
O433       Ni441   1.928       .  S
O433       Ni440   1.926       .  S
O433      Ni1195   1.924   1_554  S
O434       Ni435   1.951       .  S
O434       C1184   1.278       .  A
Ni435       O439   1.916       .  S
Ni435       O437   1.904       .  S
Ni435      O1193   1.920       .  S
O436       Ni441   1.943       .  S
C438        O439   1.268       .  A
C438        C538   1.490       .  S
Ni441      O1179   1.931   1_554  S
O443       Ni449   1.918       .  S
O443        C464   1.266       .  A
O444       Ni467   1.919       .  S
O444        C453   1.275       .  A
O445       Ni449   1.897       .  S
O445       Ni467   1.921       .  S
O445       Ni461   1.916       .  S
O445        H468   0.966       .  S
C446        O463   1.277       .  A
C446        O455   1.281       .  A
C446        C689   1.486       .  S
O447       Ni466   1.943       .  S
O447        C453   1.277       .  A
O448       Ni466   1.925       .  S
O448        C450   1.271       .  A
Ni449       O452   1.905       .  S
Ni449       O454   1.898       .  S
C450        O460   1.276       .  A
C450        C642   1.493       .  S
O451       Ni467   1.923       .  S
O451        C457   1.272       .  A
O452        C457   1.274       .  A
C453        C537   1.492       .  S
O454        C456   1.267       .  A
O455       Ni466   1.927       .  S
C456        O462   1.285       .  A
C456        C550   1.488       .  S
C457        C529   1.476       .  S
H458        O459   0.966       .  S
O459       Ni467   1.904       .  S
O459       Ni461   1.912       .  S
O459       Ni466   1.909       .  S
O460       Ni461   1.944       .  S
Ni461       O465   1.930       .  S
Ni461       O463   1.920       .  S
O462       Ni467   1.970       .  S
C464        O465   1.274       .  A
C464        C541   1.483       .  S
O469       Ni475   1.919       .  S
O469        C490   1.266       .  A
O470       Ni493   1.896       .  S
O470        C479   1.267       .  A
O471       Ni475   1.890       .  S
O471       Ni487   1.915       .  S
O471      Ni1253   1.905       .  S
O471        H494   0.966   1_655  S
C472        O481   1.278       .  A
C472       O1249   1.272   1_454  A
C472        C554   1.498       .  S
O473       Ni492   1.945       .  S
O473        C479   1.279   1_455  A
O474       Ni492   1.923       .  S
O474        C476   1.274       .  A
Ni475       O478   1.908       .  S
Ni475       O480   1.892       .  S
C476       O1246   1.274       .  A
C476        C534   1.474       .  S
O477       Ni493   1.939       .  S
O477        C483   1.279       .  A
O478       C1243   1.274       .  A
C479        C525   1.481       .  S
O480       C1242   1.266       .  A
O481       Ni492   1.954       .  S
C482        O488   1.277       .  A
C482       O1240   1.272   1_554  A
C482        C574   1.498       .  S
C483       O1238   1.276   1_554  A
C483        C594   1.470       .  S
H484        O485   0.966       .  S
O485       Ni493   1.941       .  S
O485       Ni492   1.928   1_655  S
O485      Ni1247   1.915   1_554  S
O486       Ni487   1.923   1_455  S
O486       C1236   1.269       .  A
Ni487       O491   1.906   1_655  S
Ni487       O489   1.929   1_655  S
Ni487      O1245   1.910       .  S
O488       Ni493   1.946       .  S
O489       C1232   1.276       .  A
C490        O491   1.267   1_655  A
C490        C521   1.467       .  S
Ni493      O1231   1.891       .  S
O495       Ni501   1.942       .  S
O495        C516   1.272       .  A
O496       Ni519   1.916       .  S
O496        C505   1.270       .  A
O497       Ni501   1.913       .  S
O497       Ni519   1.923       .  S
O497       Ni513   1.913       .  S
O497        H520   0.966   1_655  S
C498        O515   1.266       .  A
C498        O507   1.270   1_655  A
C498        C546   1.475   1_655  S
O499       Ni518   1.904       .  S
O499        C505   1.267       .  A
O500       Ni518   1.909   1_455  S
O500        C502   1.268       .  A
Ni501       O504   1.924       .  S
Ni501       O506   1.896       .  S
C502        O512   1.268       .  A
C502        C530   1.462       .  S
O503       Ni519   1.917       .  S
O503        C509   1.270       .  A
O504        C509   1.274       .  A
C505        C522   1.475       .  S
O506        C508   1.271       .  A
O507       Ni518   1.913   1_455  S
C508        O514   1.279       .  A
C508        C570   1.481       .  S
C509        C586   1.477       .  S
H510        O511   0.966       .  S
O511       Ni519   1.919       .  S
O511       Ni513   1.912       .  S
O511       Ni518   1.929       .  S
O512       Ni513   1.917   1_455  S
Ni513       O517   1.894       .  S
Ni513       O515   1.910       .  S
O514       Ni519   1.946       .  S
C516        O517   1.260       .  A
C516        C526   1.479       .  S
C521        C522   1.351       .  D
C521        H523   1.087   1_655  S
C522        H524   1.086       .  S
C525        C526   1.344       .  D
C525        H527   1.087       .  S
C526        H528   1.087   1_655  S
C529        C530   1.342       .  D
C529        H531   1.087       .  S
C530        H532   1.088       .  S
C533        C534   1.347       .  D
C533        H535   1.086       .  S
C534       H1296   1.088   1_554  S
H536       C1294   1.088       .  S
C537        C538   1.354       .  D
C537        H539   1.086       .  S
C538        H540   1.087       .  S
C541        C542   1.338       .  D
C541        H543   1.087       .  S
C542        H544   1.087       .  S
C545        C546   1.343       .  D
C545        H547   1.088       .  S
C546        H548   1.086       .  S
C549        C550   1.348       .  D
C549        H551   1.086       .  S
C550        H552   1.087       .  S
C553        C554   1.351       .  D
C553       H1315   1.087       .  S
C554        H556   1.086   1_554  S
H555       C1313   1.087       .  S
C557        C558   1.340       .  D
C557       H1319   1.088   1_554  S
C558        H560   1.087       .  S
H559       C1317   1.088       .  S
C561        C562   1.352       .  D
C561        H563   1.087       .  S
C562        H564   1.086       .  S
C565        C566   1.351       .  D
C565        H567   1.086       .  S
C566        H568   1.087       .  S
C569        C570   1.349       .  D
C569        H571   1.087       .  S
C570        H572   1.087       .  S
C573        C574   1.349   1_556  D
C573       H1335   1.088       .  S
C574        H576   1.086       .  S
H575       C1333   1.087       .  S
C577        C578   1.344       .  D
C577        H579   1.086       .  S
C578        H580   1.087       .  S
C581        C582   1.364       .  D
C581        H583   1.086       .  S
C582        H584   1.086       .  S
C585        C586   1.339       .  D
C585        H587   1.089       .  S
C586        H588   1.086       .  S
C589        C590   1.350       .  D
C589        H591   1.088       .  S
C590        H592   1.086       .  S
C593        C594   1.346       .  D
C593        H595   1.086       .  S
C594        H596   1.089   1_655  S
C597        C598   1.348       .  D
C597        H599   1.088   1_554  S
C598        H600   1.086       .  S
C601        C602   1.354       .  D
C601        H603   1.086       .  S
C602        H604   1.087       .  S
C605        C606   1.345       .  D
C605        H607   1.087       .  S
C606        H608   1.087       .  S
C609        C610   1.347       .  D
C609        H611   1.086       .  S
C610        H612   1.087       .  S
C613        C614   1.351       .  D
C613        H615   1.086       .  S
C614        H616   1.087       .  S
C617        C618   1.353       .  D
C617        H619   1.086   1_554  S
C618        H620   1.087       .  S
C621        C622   1.347       .  D
C621        H623   1.087       .  S
C622        H624   1.087       .  S
C625        C626   1.354       .  D
C625        H627   1.087       .  S
C626        H628   1.086       .  S
C629        C630   1.343       .  D
C629        H631   1.086       .  S
C630        H632   1.087   1_554  S
C633        C634   1.347       .  D
C633        H635   1.087       .  S
C634        H636   1.087       .  S
C637        C638   1.352       .  D
C637        H639   1.087       .  S
C638        H640   1.086       .  S
C641        C642   1.357       .  D
C641        H643   1.086       .  S
C642        H644   1.087       .  S
C645        C646   1.345   1_556  D
C645       H1407   1.087       .  S
C646        H648   1.087       .  S
H647       C1405   1.086       .  S
C649        C650   1.355       .  D
C649       H1411   1.087       .  S
C650        H652   1.086   1_554  S
H651       C1409   1.087       .  S
C653        C654   1.356       .  D
C653        H655   1.086       .  S
C654        H656   1.086       .  S
C657        C658   1.348       .  D
C657        H659   1.087       .  S
C658        H660   1.087       .  S
C661        C662   1.351       .  D
C661        H663   1.086       .  S
C662       H1424   1.087   1_554  S
H664       C1422   1.087       .  S
C665        C666   1.343       .  D
C665        H667   1.086       .  S
C666        H668   1.090       .  S
C669        C670   1.342       .  D
C669        H671   1.086       .  S
C670        H672   1.088       .  S
C673        C674   1.344       .  D
C673        H675   1.089       .  S
C674       H1436   1.086       .  S
H676       C1434   1.086       .  S
C677        C678   1.340       .  D
C677        H679   1.087       .  S
C678       H1440   1.088       .  S
H680       C1438   1.088       .  S
C681        C682   1.345   1_565  D
C681        H683   1.087       .  S
C682        H684   1.087       .  S
C685        C686   1.347   1_565  D
C685        H687   1.087       .  S
C686        H688   1.087       .  S
C689        C690   1.345       .  D
C689        H691   1.086       .  S
C690        H692   1.087       .  S
C693        C694   1.349       .  D
C693        H695   1.087       .  S
C694        H696   1.087       .  S
C697        C698   1.351       .  D
C697        H699   1.086       .  S
C698        H700   1.087       .  S
C701        C702   1.339       .  D
C701       H1463   1.088   1_556  S
C702       C1180   1.478       .  S
C702        H704   1.086       .  S
H703       C1461   1.087       .  S
C705        C706   1.348       .  D
C705       H1467   1.087       .  S
C706        H708   1.087       .  S
H707       C1465   1.086   1_554  S
C709        C710   1.348       .  D
C709        H711   1.087       .  S
C710        H712   1.087       .  S
C713        C714   1.346       .  D
C713        H715   1.087       .  S
C714        H716   1.087       .  S
C717        C718   1.350   1_554  D
C717        H719   1.087       .  S
C718       H1480   1.087       .  S
H720       C1478   1.087       .  S
C721        C722   1.340       .  D
C721        H723   1.087       .  S
C722        H724   1.087       .  S
C725        C726   1.345       .  D
C725        H727   1.087       .  S
C726        H728   1.087       .  S
C729        C730   1.344       .  D
C729        H731   1.088       .  S
C730        H732   1.086       .  S
C733        C734   1.350       .  D
C733        H735   1.086       .  S
C734        H736   1.087       .  S
C737        C768   1.471   1_564  S
C737        C738   1.342   1_554  D
C737        H739   1.087       .  S
C738       H1500   1.086       .  S
H740       C1498   1.088       .  S
C741        C742   1.343       .  D
C741        H743   1.087       .  S
C742        H744   1.087       .  S
C745        C746   1.345   1_554  D
C745       H1507   1.087       .  S
C746        H748   1.086       .  S
H747       C1505   1.087       .  S
C749        C750   1.347       .  D
C749        H751   1.086       .  S
C750        H752   1.087       .  S
C753        C754   1.343       .  D
C753        H755   1.087       .  S
C754        H756   1.087       .  S
C757        C758   1.340       .  D
C757        H759   1.087       .  S
C758       C1128   1.459   1_655  S
C758       H1520   1.087   1_554  S
H760       C1518   1.087       .  S
O761       Ni767   1.917       .  S
O761        C782   1.268       .  A
O762       Ni785   1.893       .  S
O762        C771   1.263       .  A
O763       Ni767   1.887       .  S
O763       Ni779   1.903       .  S
O763        H786   0.965       .  S
C764        O781   1.269       .  A
C764       C1517   1.476       .  S
O765       Ni784   1.932       .  S
O765        C771   1.273       .  A
O766       Ni784   1.925       .  S
O766        C768   1.272       .  A
Ni767       O770   1.906       .  S
Ni767       O772   1.897       .  S
O769       Ni785   1.899       .  S
O769        C775   1.263       .  A
C771       C1509   1.473       .  S
O772        C774   1.267       .  A
O773       Ni784   1.930       .  S
C774       C1506   1.476       .  S
C775       C1501   1.470       .  S
H776        O777   0.966       .  S
O777       Ni785   1.903       .  S
O777       Ni784   1.924       .  S
O778       Ni779   1.933       .  S
Ni779       O783   1.904       .  S
Ni779       O781   1.901       .  S
O780       Ni785   1.944       .  S
C782        O783   1.264       .  A
C782       C1513   1.469       .  S
O787       Ni793   1.929       .  S
O787        C808   1.271       .  A
O788       Ni811   1.896       .  S
O788        C797   1.266       .  A
O789       Ni793   1.917       .  S
O789       Ni811   1.914       .  S
O789       Ni805   1.924       .  S
O789        H812   0.966       .  S
C790        O807   1.272       .  A
C790        O799   1.277       .  A
C790       C1493   1.490       .  S
O791       Ni810   1.926       .  S
O791        C797   1.271       .  A
O792       Ni810   1.916       .  S
O792        C794   1.268       .  A
Ni793       O796   1.925       .  S
Ni793       O798   1.905       .  S
C794        O804   1.267       .  A
C794       C1482   1.472   1_545  S
O795       Ni811   1.916       .  S
O795        C801   1.270       .  A
O796        C801   1.273       .  A
C797       C1514   1.469       .  S
O798        C800   1.272       .  A
O799       Ni810   1.940       .  S
C800        O806   1.278       .  A
C800       C1490   1.490       .  S
C801       C1486   1.481       .  S
H802        O803   0.966       .  S
O803       Ni811   1.917       .  S
O803       Ni805   1.909       .  S
O803       Ni810   1.927       .  S
O804       Ni805   1.923       .  S
Ni805       O809   1.895       .  S
Ni805       O807   1.918       .  S
O806       Ni811   1.949       .  S
C808        O809   1.262       .  A
C808       C1510   1.472       .  S
O813       Ni819   1.925       .  S
O813        C834   1.273       .  A
O814       Ni837   1.900       .  S
O814        C823   1.263       .  A
O815       Ni819   1.913       .  S
O815       Ni831   1.904       .  S
O815        H838   0.966       .  S
C816        O833   1.272       .  A
C816       C1466   1.472       .  S
O817       Ni836   1.931       .  S
O817        C823   1.271       .  A
O818       Ni836   1.913       .  S
O818        C820   1.274       .  A
Ni819       O822   1.930       .  S
Ni819       O824   1.923       .  S
C820       C1505   1.488       .  S
O821       Ni837   1.903       .  S
O821        C827   1.267       .  A
C823       C1473   1.475       .  S
O825       Ni836   1.922       .  S
C826        O832   1.270       .  A
C826       C1461   1.465       .  S
C827       C1477   1.467       .  S
H828        O829   0.966       .  S
O829       Ni837   1.909       .  S
O829       Ni836   1.916       .  S
O830       Ni831   1.945       .  S
Ni831       O835   1.903       .  S
Ni831       O833   1.913       .  S
O832       Ni837   1.928       .  S
C834        O835   1.268       .  A
C834       C1469   1.471       .  S
O839       Ni845   1.943       .  S
O839        C860   1.278       .  A
O840       Ni863   1.903       .  S
O840        C849   1.265       .  A
O841       Ni845   1.919       .  S
O841       Ni863   1.902       .  S
O841       Ni857   1.911       .  S
O841        H864   0.966       .  S
C842        O859   1.273       .  A
C842        O851   1.275       .  A
C842       C1454   1.474       .  S
O843       Ni862   1.921       .  S
O843        C849   1.268       .  A
O844       Ni862   1.898       .  S
O844        C846   1.267       .  A
Ni845       O848   1.944       .  S
Ni845       O850   1.942       .  S
C846        O856   1.277       .  A
C846       C1489   1.477       .  S
O847       Ni863   1.914       .  S
O847        C853   1.276       .  A
O848        C853   1.280       .  A
C849       C1470   1.468       .  S
O850        C852   1.275       .  A
O851       Ni862   1.919       .  S
C852        O858   1.268       .  A
C852       C1450   1.486       .  S
C853       C1458   1.485       .  S
H854        O855   0.966       .  S
O855       Ni863   1.918       .  S
O855       Ni857   1.906       .  S
O855       Ni862   1.906       .  S
O856       Ni857   1.947       .  S
Ni857       O861   1.895       .  S
Ni857       O859   1.915       .  S
O858       Ni863   1.922       .  S
C860        O861   1.266       .  A
C860       C1474   1.477       .  S
O865       Ni871   1.892       .  S
O865        C886   1.264       .  A
O866       Ni889   1.879       .  S
O866        C875   1.258       .  A
O867       Ni871   1.904       .  S
O867       Ni883   1.928   1_565  S
O867        H890   0.966       .  S
C868        O877   1.276       .  A
C868       C1465   1.476       .  S
O869       Ni888   1.929       .  S
O869        C875   1.273   1_545  A
O870       Ni888   1.913       .  S
O870        C872   1.270       .  A
Ni871       O874   1.904       .  S
Ni871       O876   1.892       .  S
C872       C1502   1.461       .  S
O873       Ni889   1.916       .  S
O873        C879   1.262       .  A
C875       C1441   1.461       .  S
O877       Ni888   1.926       .  S
C878        O884   1.275       .  A
C878       C1437   1.470       .  S
C879       C1434   1.464       .  S
H880        O881   0.966       .  S
O881       Ni889   1.900   1_545  S
O881       Ni888   1.911       .  S
O882       Ni883   1.912       .  S
Ni883       O887   1.915       .  S
Ni883       O885   1.915       .  S
O884       Ni889   1.946       .  S
C886        O887   1.267   1_565  A
C886       C1446   1.472       .  S
O891       Ni897   1.933       .  S
O891        C912   1.275       .  A
O892       Ni915   1.897       .  S
O892        C901   1.267       .  A
O893       Ni897   1.918       .  S
O893       Ni915   1.902       .  S
O893       Ni909   1.911   1_565  S
O893        H916   0.966       .  S
C894        O911   1.273       .  A
C894        O903   1.275       .  A
C894       C1453   1.474       .  S
O895       Ni914   1.917       .  S
O895        C901   1.269   1_545  A
O896       Ni914   1.914       .  S
O896        C898   1.270       .  A
Ni897       O900   1.921       .  S
Ni897       O902   1.922       .  S
C898        O908   1.270       .  A
C898       C1485   1.479       .  S
O899       Ni915   1.924       .  S
O899        C905   1.275       .  A
O900        C905   1.276       .  A
C901       C1445   1.460       .  S
O902        C904   1.270       .  A
O903       Ni914   1.920       .  S
C904        O910   1.273       .  A
C904       C1429   1.475       .  S
C905       C1425   1.477       .  S
H906        O907   0.966       .  S
O907       Ni915   1.920   1_545  S
O907       Ni909   1.889       .  S
O907       Ni914   1.913       .  S
O908       Ni909   1.922       .  S
Ni909       O913   1.874       .  S
Ni909       O911   1.915       .  S
O910       Ni915   1.931       .  S
C912        O913   1.258   1_565  A
C912       C1442   1.457   1_565  S
O917       Ni923   1.920       .  S
O917        C938   1.268       .  A
O918       Ni941   1.912       .  S
O918        C927   1.269       .  A
O919       Ni923   1.923       .  S
O919       Ni935   1.892       .  S
O919        H942   0.967       .  S
C920        O937   1.259       .  A
C920       C1433   1.454       .  S
O921       Ni940   1.915       .  S
O921        C927   1.269       .  A
O922       Ni940   1.886       .  S
O922        C924   1.265       .  A
Ni923       O926   1.916       .  S
Ni923       O928   1.925       .  S
C924       C1410   1.495       .  S
O925       Ni941   1.929       .  S
O925        C931   1.280       .  A
C927       C1417   1.476       .  S
O929       Ni940   1.933       .  S
C930        O936   1.270       .  A
C930       C1406   1.490       .  S
C931       C1421   1.483       .  S
H932        O933   0.966       .  S
O933       Ni941   1.947       .  S
O933       Ni940   1.912       .  S
O934       Ni935   1.983       .  S
Ni935       O939   1.897       .  S
Ni935       O937   1.895       .  S
O936       Ni941   1.936       .  S
C938        O939   1.262       .  A
C938       C1413   1.466       .  S
O943       Ni949   1.935       .  S
O943        C964   1.276       .  A
O944       Ni967   1.912       .  S
O944        C953   1.266       .  A
O945       Ni949   1.906       .  S
O945       Ni967   1.911       .  S
O945       Ni961   1.926       .  S
O945        H968   0.967       .  S
C946        O963   1.281       .  A
C946        O955   1.274       .  A
C946       C1426   1.475       .  S
O947       Ni966   1.906       .  S
O947        C953   1.265       .  A
O948       Ni966   1.898       .  S
O948        C950   1.270       .  A
Ni949       O952   1.950       .  S
Ni949       O954   1.928       .  S
C950        O960   1.281       .  A
C950       C1398   1.493       .  S
O951       Ni967   1.920       .  S
O951        C957   1.278       .  A
O952        C957   1.282       .  A
C953       C1414   1.468       .  S
O954        C956   1.271       .  A
O955       Ni966   1.910       .  S
C956        O962   1.264       .  A
C956       C1393   1.478       .  S
C957       C1401   1.492       .  S
H958        O959   0.965       .  S
O959       Ni967   1.924       .  S
O959       Ni961   1.894       .  S
O959       Ni966   1.878       .  S
O960       Ni961   1.953       .  S
Ni961       O965   1.906       .  S
Ni961       O963   1.947       .  S
O962       Ni967   1.925       .  S
C964        O965   1.273       .  A
C964       C1418   1.479       .  S
O969       Ni975   1.931       .  S
O969        C990   1.273       .  A
O970       Ni993   1.915       .  S
O970        C979   1.273       .  A
O971       Ni975   1.913       .  S
O971       Ni987   1.891       .  S
O971        H994   0.966       .  S
C972        O989   1.263       .  A
C972       C1389   1.475       .  S
O973       Ni992   1.948       .  S
O973        C979   1.280       .  A
O974       Ni992   1.940       .  S
Ni975       O978   1.911       .  S
Ni975       O980   1.940       .  S
C976        O986   1.282       .  A
C976       C1378   1.502   1_565  S
O977       Ni993   1.936       .  S
O977        C983   1.282   1_556  A
C979       C1381   1.493       .  S
O980        C982   1.276       .  A
O981       Ni992   1.952   1_554  S
C982       C1409   1.504       .  S
C983       C1438   1.462       .  S
H984        O985   0.966   1_556  S
O985       Ni993   1.918   1_554  S
O985       Ni992   1.914   1_554  S
O986       Ni987   1.966       .  S
Ni987       O991   1.897       .  S
Ni987       O989   1.899       .  S
O988       Ni993   1.955   1_554  S
C990        O991   1.265       .  A
C990       C1385   1.474       .  S
O995      Ni1001   1.943       .  S
O995       C1016   1.278       .  A
O996      Ni1019   1.912       .  S
O996       C1005   1.268       .  A
O997      Ni1001   1.906       .  S
O997      Ni1019   1.912       .  S
O997      Ni1013   1.925       .  S
O997       H1020   0.966       .  S
C998       O1015   1.284       .  A
C998       O1007   1.277       .  A
C998       C1373   1.491       .  S
O999      Ni1018   1.928       .  S
O999       C1005   1.273       .  A
O1000     Ni1018   1.925       .  S
O1000      C1002   1.270       .  A
Ni1001     O1004   1.940       .  S
Ni1001     O1006   1.918       .  S
C1002      O1012   1.268       .  A
C1002      C1370   1.474   1_565  S
O1003     Ni1019   1.924       .  S
O1003      C1009   1.274       .  A
O1004      C1009   1.277       .  A
C1005      C1386   1.482       .  S
O1006      C1008   1.274       .  A
O1007     Ni1018   1.924       .  S
C1008      O1014   1.273       .  A
C1008      C1397   1.480       .  S
C1009      C1430   1.475       .  S
H1010      O1011   0.966       .  S
O1011     Ni1019   1.909       .  S
O1011     Ni1013   1.912       .  S
O1011     Ni1018   1.912       .  S
O1012     Ni1013   1.925       .  S
Ni1013     O1017   1.921       .  S
Ni1013     O1015   1.938       .  S
O1014     Ni1019   1.932       .  S
C1016      O1017   1.274       .  A
C1016      C1382   1.491       .  S
O1021     Ni1027   1.915       .  S
O1021      C1042   1.268       .  A
O1022     Ni1045   1.889       .  S
O1022      C1031   1.258       .  A
O1023     Ni1027   1.908       .  S
O1023     Ni1039   1.906       .  S
O1023      H1046   0.966       .  S
C1024      O1041   1.268       .  A
C1024      O1033   1.268       .  A
C1024      C1353   1.476       .  S
O1025     Ni1044   1.914       .  S
O1025      C1031   1.266       .  A
O1026     Ni1044   1.896       .  S
Ni1027     O1030   1.908       .  S
Ni1027     O1032   1.912       .  S
C1028      O1038   1.283       .  A
C1028      C1357   1.467       .  S
O1029     Ni1045   1.913       .  S
O1030      C1035   1.273       .  A
C1031      C1361   1.460       .  S
O1032      C1034   1.269       .  A
C1034      C1390   1.477   1_655  S
C1035      C1498   1.475       .  S
H1036      O1037   0.966       .  S
O1037     Ni1045   1.919   1_554  S
O1037     Ni1044   1.911   1_554  S
O1038     Ni1039   1.963       .  S
Ni1039     O1043   1.915       .  S
Ni1039     O1041   1.928       .  S
O1040     Ni1045   1.921       .  S
C1042      O1043   1.268       .  A
C1042      C1365   1.476       .  S
O1047     Ni1053   1.915       .  S
O1047      C1068   1.269       .  A
O1048     Ni1071   1.909       .  S
O1048      C1057   1.268       .  A
O1049     Ni1053   1.927       .  S
O1049     Ni1071   1.919       .  S
O1049     Ni1065   1.929       .  S
O1049      H1072   0.966       .  S
C1050      O1067   1.272       .  A
C1050      O1059   1.275       .  A
C1050      C1345   1.457       .  S
O1051     Ni1070   1.921       .  S
O1051      C1057   1.270       .  A
O1052     Ni1070   1.924       .  S
O1052      C1054   1.272       .  A
Ni1053     O1056   1.931       .  S
Ni1053     O1058   1.912       .  S
C1054      O1064   1.273       .  A
C1054      C1349   1.497       .  S
O1055     Ni1071   1.906       .  S
O1055      C1061   1.267       .  A
O1056      C1061   1.273       .  A
C1057      C1366   1.474       .  S
O1058      C1060   1.269       .  A
O1059     Ni1070   1.914       .  S
C1060      O1066   1.279       .  A
C1060      C1374   1.482   1_655  S
C1061      C1481   1.480       .  S
H1062      O1063   0.966       .  S
O1063     Ni1071   1.894       .  S
O1063     Ni1065   1.896       .  S
O1063     Ni1070   1.904       .  S
O1064     Ni1065   1.944       .  S
Ni1065     O1069   1.887       .  S
Ni1065     O1067   1.914       .  S
O1066     Ni1071   1.951       .  S
C1068      O1069   1.261       .  A
C1068      C1362   1.462       .  S
O1073     Ni1079   1.919       .  S
O1073      C1094   1.269       .  A
O1074     Ni1097   1.922       .  S
O1074      C1083   1.270       .  A
O1075     Ni1079   1.905       .  S
O1075     Ni1091   1.902       .  S
O1075      H1098   0.966       .  S
C1076      O1093   1.268       .  A
C1076      C1358   1.469       .  S
O1077     Ni1096   1.919       .  S
O1077      C1083   1.268       .  A
O1078     Ni1096   1.898       .  S
Ni1079     O1082   1.914       .  S
Ni1079     O1084   1.921       .  S
C1080      O1090   1.272       .  A
C1080      C1333   1.494       .  S
O1081     Ni1097   1.928       .  S
O1082      C1087   1.275       .  A
C1083      C1338   1.487       .  S
O1084      C1086   1.272       .  A
O1085     Ni1096   1.912       .  S
C1086      C1405   1.493       .  S
C1087      C1478   1.460       .  S
H1088      O1089   0.966       .  S
O1089     Ni1097   1.937       .  S
O1089     Ni1096   1.912       .  S
O1090     Ni1091   1.944       .  S
Ni1091     O1095   1.886       .  S
Ni1091     O1093   1.898       .  S
O1092     Ni1097   1.922       .  S
C1094      O1095   1.262       .  A
C1094      C1341   1.455       .  S
O1099     Ni1105   1.930       .  S
O1099      C1120   1.279       .  A
O1100     Ni1123   1.907       .  S
O1100      C1109   1.260       .  A
O1101     Ni1105   1.901       .  S
O1101     Ni1123   1.889       .  S
O1101     Ni1117   1.931       .  S
O1101      H1124   0.966       .  S
C1102      O1119   1.291       .  A
C1102      O1111   1.272       .  A
C1102      C1350   1.492       .  S
O1103     Ni1122   1.901       .  S
O1103      C1109   1.263       .  A
O1104     Ni1122   1.889       .  S
O1104      C1106   1.265       .  A
Ni1105     O1108   1.931       .  S
Ni1105     O1110   1.935       .  S
C1106      O1116   1.273       .  A
C1106      C1329   1.462       .  S
O1107     Ni1123   1.930       .  S
O1107      C1113   1.279       .  A
O1108      C1113   1.279       .  A
C1109      C1342   1.463       .  S
O1110      C1112   1.275       .  A
O1111     Ni1122   1.904       .  S
C1112      O1118   1.263       .  A
C1112      C1394   1.479       .  S
C1113      C1457   1.484       .  S
H1114      O1115   0.966       .  S
O1115     Ni1123   1.928       .  S
O1115     Ni1117   1.908       .  S
O1115     Ni1122   1.892       .  S
O1116     Ni1117   1.930       .  S
Ni1117     O1121   1.919       .  S
Ni1117     O1119   1.971       .  S
O1118     Ni1123   1.902       .  S
C1120      O1121   1.279       .  A
C1120      C1337   1.482       .  S
O1125     Ni1131   1.949       .  S
O1125      C1146   1.277       .  A
O1126     Ni1149   1.927       .  S
O1126      C1135   1.276       .  A
O1127     Ni1131   1.917       .  S
O1127     Ni1143   1.898       .  S
O1127      H1150   0.966       .  S
C1128      O1145   1.270   1_554  A
O1129     Ni1148   1.935       .  S
O1129      C1135   1.278       .  A
O1130     Ni1148   1.933       .  S
O1130      C1132   1.276       .  A
Ni1131     O1134   1.919       .  S
Ni1131     O1136   1.940       .  S
C1132      C1377   1.503       .  S
O1133     Ni1149   1.949       .  S
O1133      C1139   1.287       .  A
C1135      C1325   1.493       .  S
O1137     Ni1148   1.934       .  S
C1138      O1144   1.270       .  A
C1138      C1313   1.486       .  S
C1139      C1317   1.478       .  S
H1140      O1141   0.966       .  S
O1141     Ni1149   1.931       .  S
O1141     Ni1148   1.908       .  S
O1142     Ni1143   1.940       .  S
Ni1143     O1147   1.908       .  S
Ni1143     O1145   1.900       .  S
O1144     Ni1149   1.926       .  S
C1146      O1147   1.268       .  A
C1146      C1322   1.490       .  S
O1151     Ni1157   1.938       .  S
O1151      C1172   1.274       .  A
O1152     Ni1175   1.916       .  S
O1152      C1161   1.271       .  A
O1153     Ni1157   1.927       .  S
O1153     Ni1175   1.922       .  S
O1153     Ni1169   1.924       .  S
O1153      H1176   0.966       .  S
C1154      O1171   1.273       .  A
C1154      O1163   1.279       .  A
C1154      C1305   1.465       .  S
O1155     Ni1174   1.947       .  S
O1155      C1161   1.277       .  A
O1156     Ni1174   1.923       .  S
O1156      C1158   1.275       .  A
Ni1157     O1160   1.938       .  S
Ni1157     O1162   1.924       .  S
C1158      O1168   1.274       .  A
C1158      C1309   1.497       .  S
O1159     Ni1175   1.910       .  S
O1159      C1165   1.268       .  A
O1160      C1165   1.275       .  A
C1161      C1326   1.492       .  S
O1162      C1164   1.276       .  A
O1163     Ni1174   1.935       .  S
C1164      O1170   1.280       .  A
C1164      C1494   1.485   1_455  S
C1165      C1369   1.483       .  S
H1166      O1167   0.966       .  S
O1167     Ni1175   1.897       .  S
O1167     Ni1169   1.901       .  S
O1167     Ni1174   1.910       .  S
O1168     Ni1169   1.939       .  S
Ni1169     O1173   1.917       .  S
Ni1169     O1171   1.898       .  S
O1170     Ni1175   1.952       .  S
C1172      O1173   1.270       .  A
C1172      C1321   1.494       .  S
O1177     Ni1183   1.949       .  S
O1177      C1198   1.272       .  A
O1178     Ni1201   1.917       .  S
O1178      C1187   1.272       .  A
O1179     Ni1183   1.917       .  S
O1179     Ni1195   1.899       .  S
O1179      H1202   0.966       .  S
C1180      O1197   1.262       .  A
O1181     Ni1200   1.911       .  S
O1181      C1187   1.265       .  A
O1182     Ni1200   1.902       .  S
O1182      C1184   1.266       .  A
Ni1183     O1186   1.923   1_556  S
Ni1183     O1188   1.909       .  S
C1184      C1422   1.478       .  S
O1185     Ni1201   1.921       .  S
O1185      C1191   1.274       .  A
C1187      C1302   1.473       .  S
O1189     Ni1200   1.924       .  S
C1190      O1196   1.273       .  A
C1190      C1318   1.489       .  S
C1191      C1293   1.481       .  S
H1192      O1193   0.966       .  S
O1193     Ni1201   1.922       .  S
O1193     Ni1200   1.926       .  S
O1194     Ni1195   1.950       .  S
Ni1195     O1199   1.915       .  S
Ni1195     O1197   1.901       .  S
O1196     Ni1201   1.941       .  S
C1198      O1199   1.267       .  A
C1198      C1298   1.494       .  S
O1203     Ni1209   1.917       .  S
O1203      C1224   1.265       .  A
O1204     Ni1227   1.919       .  S
O1204      C1213   1.276       .  A
O1205     Ni1209   1.892       .  S
O1205     Ni1227   1.906       .  S
O1205     Ni1221   1.910       .  S
O1205      H1228   0.966       .  S
C1206      O1223   1.276       .  A
C1206      O1215   1.284       .  A
C1206      C1449   1.496       .  S
O1207     Ni1226   1.952       .  S
O1207      C1213   1.280       .  A
O1208     Ni1226   1.925       .  S
O1208      C1210   1.271       .  A
Ni1209     O1212   1.906       .  S
Ni1209     O1214   1.898       .  S
C1210      O1220   1.274       .  A
C1210      C1402   1.489       .  S
O1211     Ni1227   1.932       .  S
O1211      C1217   1.277       .  A
O1212      C1217   1.275       .  A
C1213      C1297   1.497       .  S
O1214      C1216   1.267       .  A
O1215     Ni1226   1.949       .  S
C1216      O1222   1.284       .  A
C1216      C1310   1.484       .  S
C1217      C1289   1.478       .  S
H1218      O1219   0.966       .  S
O1219     Ni1227   1.915       .  S
O1219     Ni1221   1.912       .  S
O1219     Ni1226   1.908       .  S
O1220     Ni1221   1.941       .  S
Ni1221     O1225   1.919       .  S
Ni1221     O1223   1.920       .  S
O1222     Ni1227   1.965       .  S
C1224      O1225   1.273       .  A
C1224      C1301   1.475       .  S
O1229     Ni1235   1.925       .  S
O1229      C1250   1.272       .  A
O1230     Ni1253   1.937       .  S
O1230      C1239   1.282       .  A
O1231     Ni1235   1.889   1_554  S
O1231     Ni1247   1.903   1_554  S
O1231      H1254   0.966   1_655  S
C1232      O1241   1.276       .  A
C1232      C1314   1.494       .  S
O1233     Ni1252   1.919       .  S
O1233      C1239   1.271   1_455  A
O1234     Ni1252   1.918       .  S
O1234      C1236   1.270       .  A
Ni1235     O1238   1.913       .  S
Ni1235     O1240   1.911       .  S
C1236      C1294   1.473       .  S
O1237     Ni1253   1.948       .  S
O1237      C1243   1.282       .  A
C1239      C1285   1.484       .  S
O1241     Ni1252   1.932       .  S
C1242      O1248   1.288       .  A
C1242      C1334   1.482       .  S
C1243      C1354   1.476       .  S
H1244      O1245   0.966       .  S
O1245     Ni1253   1.934       .  S
O1245     Ni1252   1.917   1_655  S
O1246     Ni1247   1.931   1_454  S
Ni1247     O1251   1.909       .  S
Ni1247     O1249   1.919       .  S
O1248     Ni1253   1.970       .  S
C1250      O1251   1.268       .  A
C1250      C1281   1.475       .  S
O1255     Ni1261   1.925       .  S
O1255      C1276   1.268       .  A
O1256     Ni1279   1.899       .  S
O1256      C1265   1.267       .  A
O1257     Ni1261   1.880       .  S
O1257     Ni1279   1.901       .  S
O1257     Ni1273   1.902       .  S
O1257      H1280   0.965   1_655  S
C1258      O1275   1.276       .  A
C1258      O1267   1.278   1_655  A
C1258      C1306   1.474   1_655  S
O1259     Ni1278   1.937       .  S
O1259      C1265   1.275       .  A
O1260     Ni1278   1.915   1_455  S
O1260      C1262   1.271       .  A
Ni1261     O1264   1.908       .  S
Ni1261     O1266   1.898       .  S
C1262      O1272   1.272       .  A
C1262      C1290   1.468       .  S
O1263     Ni1279   1.923       .  S
O1263      C1269   1.273       .  A
O1264      C1269   1.276       .  A
C1265      C1282   1.476       .  S
O1266      C1268   1.271       .  A
O1267     Ni1278   1.918   1_455  S
C1268      O1274   1.270       .  A
C1268      C1330   1.471       .  S
C1269      C1346   1.470       .  S
H1270      O1271   0.966       .  S
O1271     Ni1279   1.902       .  S
O1271     Ni1273   1.915       .  S
O1271     Ni1278   1.900       .  S
O1272     Ni1273   1.925   1_455  S
Ni1273     O1277   1.930       .  S
Ni1273     O1275   1.914       .  S
O1274     Ni1279   1.923       .  S
C1276      O1277   1.277       .  A
C1276      C1286   1.489       .  S
C1281      C1282   1.346       .  D
C1281      H1283   1.087   1_655  S
C1282      H1284   1.087       .  S
C1285      C1286   1.338       .  D
C1285      H1287   1.088   1_655  S
C1286      H1288   1.086       .  S
C1289      C1290   1.345       .  D
C1289      H1291   1.087       .  S
C1290      H1292   1.087       .  S
C1293      C1294   1.345       .  D
C1293      H1295   1.086       .  S
C1297      C1298   1.356       .  D
C1297      H1299   1.086       .  S
C1298      H1300   1.086       .  S
C1301      C1302   1.335       .  D
C1301      H1303   1.087       .  S
C1302      H1304   1.087       .  S
C1305      C1306   1.344       .  D
C1305      H1307   1.088       .  S
C1306      H1308   1.086       .  S
C1309      C1310   1.346       .  D
C1309      H1311   1.086       .  S
C1310      H1312   1.087       .  S
C1313      C1314   1.352       .  D
C1314      H1316   1.086       .  S
C1317      C1318   1.342       .  D
C1318      H1320   1.086       .  S
C1321      C1322   1.352       .  D
C1321      H1323   1.086       .  S
C1322      H1324   1.087       .  S
C1325      C1326   1.352       .  D
C1325      H1327   1.086       .  S
C1326      H1328   1.087       .  S
C1329      C1330   1.340       .  D
C1329      H1331   1.089       .  S
C1330      H1332   1.086       .  S
C1333      C1334   1.344       .  D
C1334      H1336   1.087       .  S
C1337      C1338   1.354       .  D
C1337      H1339   1.086       .  S
C1338      H1340   1.087       .  S
C1341      C1342   1.340       .  D
C1341      H1343   1.088       .  S
C1342      H1344   1.087       .  S
C1345      C1346   1.336       .  D
C1345      H1347   1.088   1_655  S
C1346      H1348   1.087       .  S
C1349      C1350   1.347       .  D
C1349      H1351   1.086       .  S
C1350      H1352   1.088       .  S
C1353      C1354   1.345       .  D
C1353      H1355   1.089       .  S
C1354      H1356   1.086       .  S
C1357      C1358   1.339       .  D
C1357      H1359   1.089       .  S
C1358      H1360   1.086       .  S
C1361      C1362   1.340       .  D
C1361      H1363   1.087       .  S
C1362      H1364   1.087       .  S
C1365      C1366   1.348       .  D
C1365      H1367   1.086       .  S
C1366      H1368   1.087       .  S
C1369      C1370   1.344       .  D
C1369      H1371   1.086       .  S
C1370      H1372   1.087       .  S
C1373      C1374   1.357       .  D
C1373      H1375   1.086       .  S
C1374      H1376   1.087       .  S
C1377      C1378   1.358       .  D
C1377      H1379   1.086       .  S
C1378      H1380   1.086       .  S
C1381      C1382   1.353       .  D
C1381      H1383   1.086       .  S
C1382      H1384   1.087       .  S
C1385      C1386   1.347       .  D
C1385      H1387   1.087       .  S
C1386      H1388   1.086       .  S
C1389      C1390   1.344       .  D
C1389      H1391   1.086       .  S
C1390      H1392   1.087       .  S
C1393      C1394   1.339       .  D
C1393      H1395   1.087       .  S
C1394      H1396   1.088       .  S
C1397      C1398   1.356       .  D
C1397      H1399   1.087       .  S
C1398      H1400   1.086       .  S
C1401      C1402   1.352       .  D
C1401      H1403   1.086       .  S
C1402      H1404   1.087       .  S
C1405      C1406   1.351       .  D
C1406      H1408   1.087       .  S
C1409      C1410   1.348       .  D
C1410      H1412   1.087       .  S
C1413      C1414   1.344       .  D
C1413      H1415   1.087       .  S
C1414      H1416   1.087       .  S
C1417      C1418   1.351       .  D
C1417      H1419   1.087       .  S
C1418      H1420   1.087       .  S
C1421      C1422   1.353       .  D
C1421      H1423   1.086       .  S
C1425      C1426   1.346       .  D
C1425      H1427   1.086       .  S
C1426      H1428   1.089       .  S
C1429      C1430   1.346       .  D
C1429      H1431   1.088   1_565  S
C1430      H1432   1.087   1_565  S
C1433      C1434   1.340       .  D
C1433      H1435   1.090       .  S
C1437      C1438   1.334   1_556  D
C1437      H1439   1.087       .  S
C1441      C1442   1.335   1_565  D
C1441      H1443   1.087       .  S
C1442      H1444   1.087       .  S
C1445      C1446   1.348       .  D
C1445      H1447   1.087       .  S
C1446      H1448   1.087   1_565  S
C1449      C1450   1.347       .  D
C1449      H1451   1.086       .  S
C1450      H1452   1.087       .  S
C1453      C1454   1.345       .  D
C1453      H1455   1.087       .  S
C1454      H1456   1.087       .  S
C1457      C1458   1.350       .  D
C1457      H1459   1.087       .  S
C1458      H1460   1.086       .  S
C1461      C1462   1.342       .  D
C1462      H1464   1.086       .  S
C1465      C1466   1.347       .  D
C1466      H1468   1.087       .  S
C1469      C1470   1.346       .  D
C1469      H1471   1.087       .  S
C1470      H1472   1.087       .  S
C1473      C1474   1.344       .  D
C1473      H1475   1.087       .  S
C1474      H1476   1.087       .  S
C1477      C1478   1.343       .  D
C1477      H1479   1.087       .  S
C1481      C1482   1.344       .  D
C1481      H1483   1.086       .  S
C1482      H1484   1.087       .  S
C1485      C1486   1.346       .  D
C1485      H1487   1.087       .  S
C1486      H1488   1.087       .  S
C1489      C1490   1.348       .  D
C1489      H1491   1.088       .  S
C1490      H1492   1.086       .  S
C1493      C1494   1.350       .  D
C1493      H1495   1.086       .  S
C1494      H1496   1.087       .  S
C1497      C1498   1.345       .  D
C1497      H1499   1.086       .  S
C1501      C1502   1.338       .  D
C1501      H1503   1.087       .  S
C1502      H1504   1.088   1_556  S
C1505      C1506   1.343       .  D
C1506      H1508   1.087       .  S
C1509      C1510   1.343       .  D
C1509      H1511   1.087       .  S
C1510      H1512   1.087       .  S
C1513      C1514   1.346       .  D
C1513      H1515   1.087       .  S
C1514      H1516   1.087       .  S
C1517      C1518   1.342       .  D
C1517      H1519   1.086       .  S
