geometry optimzed in LAMMPS
_audit_creation_date              2020-11-30 
_audit_creation_method            'lammps2cif' 
_symmetry_space_group_name_H-M    'P1' 
_symmetry_Int_Tables_number       1 
_symmetry_cell_setting            triclinic 
loop_ 
_symmetry_equiv_pos_as_xyz 
  x,y,z 
_cell_length_a                    48.88326524 
_cell_length_b                    48.05272695508329 
_cell_length_c                    30.156595112841643 
_cell_angle_alpha                 88.20481114722448 
_cell_angle_beta                  89.66624513640843 
_cell_angle_gamma                 89.96424782667155 
loop_ 
_atom_site_label 
_atom_site_type_symbol 
_atom_site_fract_x 
_atom_site_fract_y 
_atom_site_fract_z 
_atom_site_charge 
Zr1        Zr  0.83845508  0.06942297  0.02075299     2.17500
O2          O  0.87388219  0.06678334  0.07755779    -0.51800
O3          O  0.85599035  0.02171787  0.01712521    -0.75000
O4          O  0.82143137  0.06815295  0.09731461    -0.81800
O5          O  0.88856567  0.09766499  0.93423382    -0.83500
O6          O  0.77533521  0.07263850  0.09829188    -0.79100
O7          O  0.88364063  0.08776253  0.00789750    -0.90800
O8          O  0.83478856  0.00119063  0.95989247    -0.76700
O9          O  0.79708304  0.04449943  0.00986041    -0.86200
O10         O  0.84027894  0.05628509  0.94516813    -0.85900
O11         O  0.80329534  0.10340584  0.03347342    -0.72700
O12         O  0.84300205  0.11153412  0.97577215    -0.84800
Zr13       Zr  0.76647784  0.10580508  0.90097977     2.26400
Zr14       Zr  0.76169125  0.07834613  0.02095483     2.06300
Zr15       Zr  0.84355249  0.09785355  0.90028702     2.10000
Zr16       Zr  0.79880568  0.03160107  0.93408930     1.78800
O17         O  0.85963247  0.14209159  0.86820570    -0.93600
O18         O  0.77409102  0.99210956  0.96748986    -0.41400
O19         O  0.80220160  0.07292411  0.88869027    -0.78000
O20         O  0.76211911  0.06341120  0.94580239    -0.96700
O21         O  0.76527518  0.12003335  0.97583450    -0.90000
O22         O  0.80782342  0.13108572  0.91111730    -0.92900
C23         C  0.85314749  0.00193044  0.98987460     1.00900
C24         C  0.89797060  0.09496413  0.97387173     1.13800
C25         C  0.79851259  0.07053888  0.11798205     1.04600
O26         O  0.73949135  0.03503578  0.04491514    -0.95000
O27         O  0.71570801  0.08207862  0.99113206    -0.90800
O28         O  0.71945236  0.09321971  0.91773891    -0.83900
C29         C  0.70545425  0.08615743  0.95231170     1.11200
O30         O  0.84089777  0.16397124  0.03562619    -0.97000
Zr31       Zr  0.80704419  0.14421221  0.98661178     1.88900
O32         O  0.75372734  0.15490830  0.90003747    -0.73600
O33         O  0.73232330  0.10724818  0.06604883    -0.52900
O34         O  0.78841471  0.16879145  0.04959810    -0.97600
O35         O  0.83109216  0.18110918  0.94503087    -0.54800
O36         O  0.77041092  0.17383938  0.96202556    -0.74200
C37         C  0.75485639  0.17436912  0.92814376     0.98200
O38         O  0.73652512  0.11340499  0.83718526    -0.63000
O39         O  0.87943989  0.07416075  0.85963307    -0.57800
O40         O  0.78208348  0.09717545  0.82541551    -0.94500
O41         O  0.82821021  0.09286987  0.82412988    -0.92900
O42         O  0.81933367  0.01252283  0.86779373    -0.93300
O43         O  0.76507919  0.01229644  0.88441156    -0.92000
C44         C  0.80479492  0.09288488  0.80492745     1.17000
H45         H  0.85643963  0.04563578  0.93848009     0.33000
H46         H  0.74588629  0.05291761  0.93930305     0.43800
H47         H  0.80895502  0.14686022  0.89049924     0.37300
H48         H  0.80414136  0.11059328  0.06292785     0.33800
H49         H  0.78524843  0.97561859  0.96034929     0.25600
H50         H  0.72471296  0.09443321  0.08929949     0.31500
H51         H  0.78395797  0.15425488  0.07245375     0.37500
H52         H  0.82970772  0.02819359  0.85384214     0.31900
H53         H  0.87011522  0.05897554  0.84426426     0.30800
H54         H  0.87839971  0.14419695  0.87978447     0.32500
H55         H  0.85077579  0.17706297  0.94928478     0.31400
H56         H  0.76499335  0.02521299  0.85816669     0.35400
H57         H  0.72833916  0.09502678  0.83142237     0.28200
H58         H  0.86999168  0.04982008  0.09603400     0.32400
H59         H  0.85776100  0.15303728  0.03072693     0.35300
H60         H  0.88500406  0.08756677  0.83566050     0.27900
H61         H  0.72109689  0.12487747  0.84766588     0.40700
H62         H  0.72102127  0.04065582  0.05490485     0.30800
H63         H  0.77614503  0.99390042  0.99990727     0.38400
H64         H  0.82767806  0.19813319  0.96190884     0.30300
H65         H  0.74501297  0.11946374  0.08193807     0.30300
H66         H  0.87067218  0.08259720  0.09721970     0.30600
Zr67       Zr  0.83841115  0.06777376  0.52024033     2.17500
O68         O  0.87266431  0.05551414  0.57628418    -0.51800
O69         O  0.85381488  0.02001666  0.50910005    -0.75000
O70         O  0.82097240  0.06618124  0.59645458    -0.81800
O71         O  0.88681996  0.10652328  0.44094534    -0.83500
O72         O  0.77500385  0.07256062  0.59744903    -0.79100
O73         O  0.88284760  0.09053826  0.51260194    -0.90800
O74         O  0.81589165  0.99964585  0.48493010    -0.76700
O75         O  0.79579466  0.04485396  0.50856849    -0.86200
O76         O  0.84008144  0.05528963  0.44402182    -0.85900
O77         O  0.80336299  0.10212428  0.53401823    -0.72700
O78         O  0.84233675  0.11036222  0.47699444    -0.84800
Zr79       Zr  0.76679582  0.10863685  0.40162761     2.26400
Zr80       Zr  0.76068307  0.07891421  0.52021825     2.06300
Zr81       Zr  0.84416203  0.09799438  0.40143458     2.10000
Zr82       Zr  0.79721824  0.03296705  0.43254682     1.78800
O83         O  0.86243509  0.13968951  0.36404359    -0.93600
O84         O  0.75972744  0.00027003  0.44574661    -0.41400
O85         O  0.80184148  0.07501900  0.38916781    -0.78000
O86         O  0.76127946  0.06550063  0.44420990    -0.96700
O87         O  0.76525290  0.12130971  0.47713826    -0.90000
O88         O  0.80905201  0.13206779  0.41336020    -0.92900
C89         C  0.84073357  0.99842703  0.49715973     1.00900
C90         C  0.89588604  0.10316051  0.48083230     1.13800
C91         C  0.79812125  0.06917477  0.61709556     1.04600
O92         O  0.73798077  0.03550128  0.54222854    -0.95000
O93         O  0.71459130  0.08360964  0.48862182    -0.90800
O94         O  0.71952134  0.09543271  0.41537695    -0.83900
C95         C  0.70497566  0.08813328  0.44929648     1.11200
O96         O  0.84526458  0.16310937  0.53155758    -0.97000
Zr97       Zr  0.80755930  0.14392719  0.48974813     1.88900
O98         O  0.75384346  0.15775539  0.40696119    -0.73600
O99         O  0.73134445  0.10680629  0.56693563    -0.52900
O100        O  0.79305756  0.16095520  0.56147356    -0.97600
O101        O  0.82882493  0.18521667  0.45548305    -0.54800
O102        O  0.76892257  0.17334530  0.47231636    -0.74200
C103        C  0.75351108  0.17533364  0.43828705     0.98200
O104        O  0.73816442  0.11988103  0.33737285    -0.63000
O105        O  0.87877523  0.06993960  0.36522439    -0.57800
O106        O  0.78266338  0.10045223  0.32593592    -0.94500
O107        O  0.82868628  0.09471493  0.32499205    -0.92900
O108        O  0.82883506  0.00754813  0.38589696    -0.93300
O109        O  0.77485234  0.01464852  0.36761681    -0.92000
C110        C  0.80531472  0.09552404  0.30560504     1.17000
H111        H  0.85540436  0.04343905  0.43717474     0.33000
H112        H  0.74506397  0.05529062  0.43674677     0.43800
H113        H  0.81093539  0.14810830  0.39354487     0.37300
H114        H  0.80440259  0.10905325  0.56360167     0.33800
H115        H  0.76784157  0.98164451  0.44154077     0.25600
H116        H  0.72320716  0.09332513  0.58874672     0.31500
H117        H  0.77281915  0.16089374  0.56048925     0.37500
H118        H  0.83035002  0.01904133  0.35816292     0.31900
H119        H  0.86837938  0.05491265  0.35123439     0.30800
H120        H  0.87422390  0.13271643  0.34001034     0.32500
H121        H  0.81612170  0.19165776  0.43185621     0.31400
H122        H  0.77153717  0.03117566  0.34794996     0.35400
H123        H  0.72878628  0.10232628  0.33023392     0.28200
H124        H  0.86528344  0.03928940  0.59349449     0.32400
H125        H  0.85750616  0.14710329  0.53815225     0.35300
H126        H  0.88548162  0.08176775  0.33998701     0.27900
H127        H  0.72341067  0.13206442  0.34834411     0.40700
H128        H  0.73892767  0.03450243  0.57501671     0.30800
H129        H  0.75609659  0.00083888  0.47801878     0.38400
H130        H  0.84498978  0.17814852  0.43942283     0.30300
H131        H  0.74403676  0.11809247  0.58442512     0.30300
H132        H  0.87282670  0.07096877  0.59728587     0.30600
Zr133      Zr  0.56804935  0.34517755  0.83428320     2.17500
O134        O  0.55804002  0.38130850  0.77785205    -0.51800
O135        O  0.52013774  0.35961638  0.84175749    -0.75000
O136        O  0.56726016  0.32836884  0.75868182    -0.81800
O137        O  0.59788663  0.39585292  0.91428805    -0.83500
O138        O  0.57196997  0.28145774  0.75929870    -0.79100
O139        O  0.58774146  0.39106373  0.84158348    -0.90800
O140        O  0.50099695  0.33566671  0.90001363    -0.76700
O141        O  0.54557061  0.30197617  0.84976460    -0.86200
O142        O  0.55630007  0.34626601  0.91112615    -0.85900
O143        O  0.60228532  0.31037987  0.81930400    -0.72700
O144        O  0.60999997  0.35039891  0.87454229    -0.84800
Zr145      Zr  0.60886386  0.27192830  0.95274060     2.26400
Zr146      Zr  0.57953657  0.26696037  0.83634349     2.06300
Zr147      Zr  0.59808617  0.35018984  0.95135964     2.10000
Zr148      Zr  0.53425369  0.30280784  0.92668475     1.78800
O149        O  0.64187875  0.36748963  0.97719809    -0.93600
O150        O  0.49814352  0.27359483  0.89786544    -0.41400
O151        O  0.57566185  0.30702063  0.96681596    -0.78000
O152        O  0.56639387  0.26679409  0.91309671    -0.96700
O153        O  0.62116375  0.27146586  0.87632971    -0.90000
O154        O  0.63177110  0.31509551  0.93855974    -0.92900
C155        C  0.50041865  0.35439994  0.86908037     1.00900
C156        C  0.59541810  0.40552436  0.87428683     1.13800
C157        C  0.56950943  0.30518495  0.73885920     1.04600
O158        O  0.53988443  0.24167861  0.81029122    -0.95000
O159        O  0.58175920  0.22033939  0.87072762    -0.90800
O160        O  0.59682055  0.22384881  0.94143706    -0.83900
C161        C  0.58749792  0.20982826  0.90937770     1.11200
O162        O  0.66193473  0.35233996  0.81405772    -0.97000
Zr163      Zr  0.64309813  0.31497739  0.86150530     1.88900
O164        O  0.65801485  0.26357927  0.94891529    -0.73600
O165        O  0.61106066  0.23950129  0.79274741    -0.52900
O166        O  0.66485756  0.30174872  0.79236361    -0.97600
O167        O  0.68129896  0.33566772  0.90030913    -0.54800
O168        O  0.67066064  0.27476322  0.87861240    -0.74200
C169        C  0.67397696  0.26131087  0.91534925     0.98200
O170        O  0.62137317  0.23772889  0.01083314    -0.63000
O171        O  0.57520535  0.38263042  0.99992094    -0.57800
O172        O  0.59976749  0.28691414  0.02815381    -0.94500
O173        O  0.59415549  0.33365351  0.02816122    -0.92900
O174        O  0.51494636  0.32475672  0.99152069    -0.93300
O175        O  0.51726901  0.26983061  0.98334139    -0.92000
C176        C  0.59487108  0.30964968  0.04811077     1.17000
H177        H  0.54492589  0.36202931  0.91787692     0.33000
H178        H  0.55637629  0.25028793  0.92211645     0.43800
H179        H  0.64748423  0.31671506  0.95752995     0.37300
H180        H  0.60919828  0.31148022  0.78930854     0.33800
H181        H  0.49381267  0.28190077  0.86827125     0.25600
H182        H  0.59912607  0.22824326  0.77387644     0.31500
H183        H  0.66072730  0.28169760  0.78984844     0.37500
H184        H  0.52782407  0.33999946  0.99789934     0.31900
H185        H  0.58949265  0.39604984  0.00826618     0.30800
H186        H  0.63718709  0.38278777  0.99710751     0.32500
H187        H  0.67826589  0.35602487  0.89770134     0.31400
H188        H  0.53237785  0.26796520  0.00497014     0.35400
H189        H  0.63439008  0.24720183  0.03034688     0.28200
H190        H  0.54209380  0.37460982  0.76110886     0.32400
H191        H  0.64688053  0.36601179  0.81051785     0.35300
H192        H  0.56257554  0.39356012  0.98064041     0.27900
H193        H  0.60472996  0.23450916  0.02921105     0.40700
H194        H  0.52638844  0.25628358  0.80202110     0.30800
H195        H  0.50725620  0.25574170  0.89149115     0.38400
H196        H  0.69747325  0.33220733  0.88134173     0.30300
H197        H  0.61985466  0.25310129  0.77186997     0.30300
H198        H  0.57352052  0.38121362  0.75651841     0.30600
Zr199      Zr  0.56687142  0.34391055  0.32955477     2.17500
O200        O  0.56200116  0.37944281  0.27034718    -0.51800
O201        O  0.51888627  0.35798532  0.32695093    -0.75000
O202        O  0.56833229  0.32494982  0.25560689    -0.81800
O203        O  0.59171804  0.39728241  0.41059707    -0.83500
O204        O  0.57344138  0.27806487  0.25843546    -0.79100
O205        O  0.58533039  0.39008608  0.33731156    -0.90800
O206        O  0.49642954  0.33134667  0.37843955    -0.76700
O207        O  0.54418022  0.30079263  0.34449124    -0.86200
O208        O  0.55073125  0.34679823  0.40406708    -0.85900
O209        O  0.60173667  0.30906872  0.32032273    -0.72700
O210        O  0.60652540  0.35019247  0.37491842    -0.84800
Zr211      Zr  0.60204648  0.27317104  0.45573975     2.26400
Zr212      Zr  0.57883650  0.26567241  0.33679085     2.06300
Zr213      Zr  0.59029731  0.35187078  0.44957766     2.10000
Zr214      Zr  0.52882432  0.30349448  0.41945549     1.78800
O215        O  0.62996366  0.37466409  0.48083161    -0.93600
O216        O  0.49376321  0.27125472  0.39563270    -0.41400
O217        O  0.56791831  0.30846049  0.46560496    -0.78000
O218        O  0.56169272  0.26766317  0.41114443    -0.96700
O219        O  0.61831723  0.27127714  0.38169519    -0.90000
O220        O  0.62485479  0.31654392  0.44238508    -0.92900
C221        C  0.49708723  0.35020966  0.34762138     1.00900
C222        C  0.59116667  0.40566008  0.36962184     1.13800
C223        C  0.57111599  0.30144506  0.23694039     1.04600
O224        O  0.54094512  0.23831526  0.30958711    -0.95000
O225        O  0.57901029  0.21957752  0.37356588    -0.90800
O226        O  0.58934806  0.22521598  0.44592357    -0.83900
C227        C  0.58173157  0.21027266  0.41382403     1.11200
O228        O  0.65994221  0.35111893  0.31886619    -0.97000
Zr229      Zr  0.64033198  0.31474691  0.36739738     1.88900
O230        O  0.65050698  0.25982889  0.45627840    -0.73600
O231        O  0.61424072  0.23953650  0.29893941    -0.52900
O232        O  0.66269897  0.29802866  0.30087705    -0.97600
O233        O  0.67656514  0.33834201  0.40679592    -0.54800
O234        O  0.66879388  0.27621964  0.39143071    -0.74200
C235        C  0.66915430  0.26011665  0.42602174     0.98200
O236        O  0.60350261  0.23684936  0.51421405    -0.63000
O237        O  0.55890901  0.38299036  0.48691916    -0.57800
O238        O  0.59627698  0.29056733  0.53003885    -0.94500
O239        O  0.58883586  0.33710434  0.52774847    -0.92900
O240        O  0.50616326  0.33008089  0.47648967    -0.93300
O241        O  0.50986724  0.27356887  0.47863529    -0.92000
C242        C  0.59104593  0.31355853  0.54888880     1.17000
H243        H  0.53852491  0.36237247  0.40772669     0.33000
H244        H  0.55106491  0.25140730  0.41942315     0.43800
H245        H  0.63964110  0.31884056  0.46305300     0.37300
H246        H  0.60965116  0.30965617  0.29096143     0.33800
H247        H  0.47625248  0.27952090  0.40537614     0.25600
H248        H  0.60423318  0.22480648  0.28352311     0.31500
H249        H  0.68251457  0.29862230  0.30739580     0.37500
H250        H  0.51761133  0.32725541  0.50323959     0.31900
H251        H  0.54754204  0.37072998  0.50650767     0.30800
H252        H  0.63670219  0.38757815  0.45698772     0.32500
H253        H  0.67196925  0.35839413  0.40409180     0.31400
H254        H  0.52549381  0.26962402  0.49861719     0.35400
H255        H  0.61872893  0.24178907  0.53396406     0.28200
H256        H  0.54634783  0.37362291  0.25217044     0.32400
H257        H  0.64543096  0.35546431  0.29693754     0.35300
H258        H  0.57056455  0.39338647  0.50743002     0.27900
H259        H  0.58663502  0.23896094  0.53219798     0.40700
H260        H  0.52936547  0.23444545  0.33611996     0.30800
H261        H  0.49352414  0.27346845  0.36287859     0.38400
H262        H  0.69312236  0.33619785  0.38813538     0.30300
H263        H  0.62100912  0.25226099  0.27485536     0.30300
H264        H  0.57827806  0.37758064  0.25089120     0.30600
Zr265      Zr  0.47323570  0.98762267  0.86832411     2.17500
O266        O  0.43707713  0.99652643  0.81436211    -0.51800
O267        O  0.47472675  0.93772882  0.86093642    -0.75000
O268        O  0.49128974  0.98795586  0.79376593    -0.81800
O269        O  0.42195637  0.98338081  0.95959285    -0.83500
O270        O  0.53310164  0.00847680  0.79322369    -0.79100
O271        O  0.42749438  0.97198236  0.88773572    -0.90800
O272        O  0.49964224  0.92050136  0.91876198    -0.76700
O273        O  0.51994491  0.97486539  0.87981218    -0.86200
O274        O  0.47565915  0.97095111  0.94325244    -0.85900
O275        O  0.49837885  0.03008370  0.85510591    -0.72700
O276        O  0.45643515  0.02507528  0.91162390    -0.84800
Zr277      Zr  0.53200423  0.03855550  0.98727483     2.26400
Zr278      Zr  0.54533123  0.01714719  0.86914637     2.06300
Zr279      Zr  0.46072243  0.00884884  0.98655144     2.10000
Zr280      Zr  0.52199016  0.95884760  0.95513315     1.78800
O281        O  0.42847647  0.04663414  0.99779719    -0.93600
O282        O  0.56026290  0.93145417  0.92820113    -0.41400
O283        O  0.50729288  0.99619975  0.00011489    -0.78000
O284        O  0.54851934  0.00048930  0.94438132    -0.96700
O285        O  0.52903660  0.05405948  0.91218718    -0.90000
O286        O  0.48538205  0.05148673  0.97632556    -0.92900
C287        C  0.48377579  0.91752116  0.88536920     1.00900
C288        C  0.41375798  0.97212168  0.92406754     1.13800
C289        C  0.51244273  0.99805603  0.77377379     1.04600
O290        O  0.57943562  0.98132533  0.85633235    -0.95000
O291        O  0.58543082  0.04133798  0.89755039    -0.90800
O292        O  0.57892167  0.04831171  0.97081435    -0.83900
C293        C  0.59349375  0.04961131  0.93555580     1.11200
O294        O  0.44339861  0.07704313  0.85371989    -0.97000
Zr295      Zr  0.48278935  0.06668194  0.90059948     1.88900
O296        O  0.53827657  0.08899892  0.97978705    -0.73600
O297        O  0.56964887  0.04820221  0.81689432    -0.52900
O298        O  0.48887621  0.09558041  0.83343635    -0.97600
O299        O  0.45476923  0.09815094  0.94366736    -0.54800
O300        O  0.51757406  0.10071437  0.91481525    -0.74200
C301        C  0.53464403  0.10535765  0.94577565     0.98200
O302        O  0.56512014  0.03131109  0.04681271    -0.63000
O303        O  0.43528437  0.98570248  0.04697487    -0.57800
O304        O  0.51218263  0.04061475  0.06116030    -0.94500
O305        O  0.47691697  0.01012762  0.06146672    -0.92900
O306        O  0.50235795  0.93243543  0.01779791    -0.93300
O307        O  0.55606083  0.94548342  0.01041224    -0.92000
C308        C  0.49468292  0.02470752  0.08121313     1.17000
H309        H  0.46437101  0.95475496  0.94901844     0.33000
H310        H  0.56733877  0.99633342  0.95164616     0.43800
H311        H  0.47981268  0.06547555  0.99686924     0.37300
H312        H  0.49588571  0.03707141  0.82506725     0.33800
H313        H  0.55553184  0.91192926  0.93646577     0.25600
H314        H  0.58069080  0.03581019  0.79820689     0.31500
H315        H  0.48717488  0.11498483  0.84325612     0.37500
H316        H  0.49773428  0.94653853  0.03989339     0.31900
H317        H  0.41606727  0.99185871  0.04357199     0.30800
H318        H  0.42802307  0.04879660  0.03033070     0.32500
H319        H  0.43565561  0.09428951  0.93510155     0.31400
H320        H  0.55790882  0.96205752  0.02886093     0.35400
H321        H  0.56369065  0.04780940  0.06559336     0.28200
H322        H  0.43851863  0.98140998  0.79288684     0.32400
H323        H  0.43735665  0.05873816  0.84322620     0.35300
H324        H  0.43521942  0.96569372  0.03996816     0.27900
H325        H  0.55810215  0.01552814  0.06544783     0.40700
H326        H  0.57265299  0.97144858  0.83025207     0.30800
H327        H  0.55867094  0.93247667  0.89548948     0.38400
H328        H  0.45869332  0.11689135  0.93059976     0.30300
H329        H  0.55556232  0.05627118  0.79682263     0.30300
H330        H  0.44275198  0.01361638  0.79758825     0.30600
Zr331      Zr  0.47026312  0.99137538  0.36953199     2.17500
O332        O  0.43153610  0.99160682  0.31872143    -0.51800
O333        O  0.47453210  0.94211551  0.35580055    -0.75000
O334        O  0.48294075  0.00125417  0.29241183    -0.81800
O335        O  0.42474874  0.98032915  0.47119046    -0.83500
O336        O  0.52345817  0.02449309  0.28907088    -0.73100
O337        O  0.42476422  0.97776876  0.39626283    -0.90800
O338        O  0.50655183  0.92427334  0.40278740    -0.76700
O339        O  0.51858714  0.98390473  0.36958983    -0.86200
O340        O  0.48053367  0.96940503  0.43923979    -0.85900
O341        O  0.49014597  0.03708619  0.36166305    -0.72700
O342        O  0.45427975  0.02262441  0.42454309    -0.84800
Zr343      Zr  0.53408157  0.03892594  0.48792207     2.26400
Zr344      Zr  0.53911089  0.02926965  0.36407757     2.06300
Zr345      Zr  0.46658601  0.00120903  0.49395141     2.10000
Zr346      Zr  0.52853305  0.96218116  0.43952316     1.78800
O347        O  0.43280246  0.03114221  0.52815308    -0.93600
O348        O  0.56449869  0.94264849  0.39363462    -0.41400
O349        O  0.51472931  0.99332935  0.49575238    -0.78000
O350        O  0.55002685  0.00692869  0.43358917    -0.96700
O351        O  0.52302841  0.05960575  0.41824030    -0.90000
O352        O  0.48590200  0.04677370  0.48886716    -0.92900
C353        C  0.48750896  0.92169760  0.37417484     1.00900
C354        C  0.41332692  0.97459916  0.43462479     1.13800
C355        C  0.50235671  0.01389140  0.27115759     1.04600
O356        O  0.57473607  0.00166614  0.32976108    -0.95000
O357        O  0.58168623  0.05093672  0.39012080    -0.90800
O358        O  0.57841655  0.05508360  0.46474344    -0.83900
C359        C  0.59131364  0.05810790  0.42792583     1.11200
O360        O  0.43040635  0.07770962  0.38670122    -0.97000
Zr361      Zr  0.47522840  0.06743587  0.41832999     1.88900
O362        O  0.53433846  0.08980030  0.49047557    -0.73600
O363        O  0.54978776  0.07205972  0.32211274    -0.52900
O364        O  0.47328411  0.10114044  0.35635644    -0.97600
O365        O  0.44948719  0.09244596  0.47400931    -0.54800
O366        O  0.50823940  0.10317639  0.43178224    -0.74200
C367        C  0.52736777  0.10737822  0.45957892     0.98200
O368        O  0.57305338  0.03199088  0.53728857    -0.63000
O369        O  0.45472243  0.96253582  0.54477195    -0.57800
O370        O  0.52098116  0.03210258  0.56530582    -0.94500
O371        O  0.48512655  0.00214093  0.56671795    -0.92900
O372        O  0.51853245  0.92741269  0.49784491    -0.93300
O373        O  0.56830084  0.94942818  0.48395501    -0.92000
C374        C  0.50389398  0.01582063  0.58553530     1.17000
H375        H  0.47061295  0.95218292  0.44391672     0.33000
H376        H  0.56954503  0.00423533  0.43610648     0.43800
H377        H  0.48063675  0.05805053  0.51342348     0.37300
H378        H  0.48482480  0.04610413  0.33399486     0.33800
H379        H  0.56440120  0.92247968  0.40147140     0.25600
H380        H  0.55873071  0.06599797  0.29451336     0.31500
H381        H  0.47178161  0.11950074  0.37020822     0.37500
H382        H  0.51122533  0.93816510  0.52276734     0.31900
H383        H  0.43658142  0.96731288  0.55718098     0.30800
H384        H  0.42367664  0.01905557  0.55093056     0.32500
H385        H  0.43102725  0.08396982  0.47432924     0.31400
H386        H  0.56960847  0.96424777  0.50593374     0.35400
H387        H  0.57152668  0.04652163  0.55976341     0.28200
H388        H  0.43594334  0.97766656  0.29623249     0.32400
H389        H  0.42160722  0.05935170  0.38333619     0.35300
H390        H  0.45128116  0.94647828  0.52579509     0.27900
H391        H  0.56968419  0.01413308  0.55366183     0.40700
H392        H  0.58752613  0.99688622  0.35417647     0.30800
H393        H  0.55729301  0.94382528  0.36301515     0.38400
H394        H  0.44682978  0.11133252  0.46065016     0.30300
H395        H  0.53181159  0.07957753  0.31261044     0.30300
H396        H  0.43200912  0.00984672  0.30252738     0.30600
Zr397      Zr  0.44151127  0.67267016  0.78706160     2.17500
O398        O  0.44366922  0.63809657  0.72949922    -0.51800
O399        O  0.48883459  0.65588969  0.78629745    -0.75000
O400        O  0.43636180  0.69288169  0.71176549    -0.81800
O401        O  0.41720835  0.62100822  0.87690240    -0.83500
O402        O  0.43353385  0.74003179  0.71306695    -0.79100
O403        O  0.41952167  0.62791685  0.80205254    -0.90800
O404        O  0.50859425  0.69604604  0.79961330    -0.76700
O405        O  0.46675922  0.71477868  0.79448785    -0.86200
O406        O  0.46206020  0.66889562  0.85924552    -0.85900
O407        O  0.40815112  0.70974275  0.78162931    -0.72700
O408        O  0.40505757  0.66812024  0.84056260    -0.84800
Zr409      Zr  0.41868259  0.74483775  0.91350778     2.26400
Zr410      Zr  0.43391232  0.75184046  0.79063825     2.06300
Zr411      Zr  0.42548652  0.66542065  0.91215016     2.10000
Zr412      Zr  0.48706355  0.71111071  0.86612008     1.78800
O413        O  0.38637276  0.64554138  0.95224710    -0.93600
O414        O  0.51932201  0.74869076  0.84918828    -0.41400
O415        O  0.45089589  0.70742286  0.91927480    -0.78000
O416        O  0.45617275  0.74915263  0.86166253    -0.96700
O417        O  0.39716551  0.74766671  0.84300116    -0.90000
O418        O  0.39300351  0.70282194  0.90794726    -0.92900
C419        C  0.51037726  0.67018140  0.79322899     1.00900
C420        C  0.41441160  0.61271732  0.83691282     1.13800
C421        C  0.43360248  0.71704328  0.69254102     1.04600
O422        O  0.46986238  0.77610412  0.74870902    -0.95000
O423        O  0.43994353  0.79793741  0.82038740    -0.90800
O424        O  0.43237071  0.79273389  0.89453239    -0.83900
C425        C  0.43936664  0.80733722  0.85981057     1.11200
O426        O  0.34980989  0.67262940  0.78834546    -0.97000
Zr427      Zr  0.37278408  0.70506337  0.83620928     1.88900
O428        O  0.37145592  0.76012051  0.92203916    -0.73600
O429        O  0.39718864  0.78083294  0.76046220    -0.52900
O430        O  0.34466813  0.72699896  0.77853343    -0.97600
O431        O  0.33952474  0.67624229  0.87699953    -0.54800
O432        O  0.34507159  0.73896097  0.87157443    -0.74200
C433        C  0.34870962  0.75640407  0.90203892     0.98200
O434        O  0.42054942  0.77294664  0.97942951    -0.63000
O435        O  0.45715473  0.63300450  0.94868556    -0.57800
O436        O  0.42947759  0.72641573  0.98753514    -0.94500
O437        O  0.43171604  0.67923428  0.98867503    -0.92900
O438        O  0.51630981  0.67540530  0.90006320    -0.93300
O439        O  0.51244287  0.72734104  0.92960411    -0.92000
C440        C  0.43306266  0.70276506  0.00776503     1.17000
H441        H  0.47354916  0.65263900  0.86274526     0.33000
H442        H  0.46804606  0.76470971  0.86666623     0.43800
H443        H  0.37950826  0.70120611  0.93145762     0.37300
H444        H  0.39828518  0.70996879  0.75405274     0.33800
H445        H  0.53767007  0.74042575  0.85383303     0.25600
H446        H  0.40631807  0.79363322  0.73867702     0.31500
H447        H  0.34535846  0.74717304  0.78415158     0.37500
H448        H  0.50605070  0.66869448  0.92671716     0.31900
H449        H  0.44572036  0.62208305  0.97010866     0.30800
H450        H  0.39326404  0.62790508  0.96586909     0.32500
H451        H  0.33591433  0.68587381  0.90497505     0.31400
H452        H  0.49837560  0.73565375  0.94889953     0.35400
H453        H  0.43939921  0.78057383  0.98002962     0.28200
H454        H  0.45874390  0.64409946  0.70933193     0.32400
H455        H  0.35994926  0.65488986  0.79238415     0.35300
H456        H  0.46233885  0.61957134  0.92586843     0.27900
H457        H  0.40868751  0.78923332  0.97315378     0.40700
H458        H  0.46065952  0.79241838  0.73452936     0.30800
H459        H  0.51804575  0.75188111  0.81666732     0.38400
H460        H  0.34973495  0.65922895  0.88610390     0.30300
H461        H  0.38631992  0.76820912  0.74217404     0.30300
H462        H  0.42677740  0.64057116  0.71181051     0.30600
Zr463      Zr  0.43760446  0.67327683  0.29918768     2.17500
O464        O  0.43740988  0.63370533  0.25032528    -0.51800
O465        O  0.48320137  0.65201249  0.31053097    -0.75000
O466        O  0.44572639  0.68674807  0.22139567    -0.81800
O467        O  0.39225358  0.63392212  0.38297074    -0.83500
O468        O  0.45019367  0.73361557  0.21406066    -0.79100
O469        O  0.41181358  0.63077788  0.31474754    -0.90800
O470        O  0.50264973  0.67170457  0.36994837    -0.76700
O471        O  0.46771719  0.71125427  0.31020786    -0.86200
O472        O  0.44618714  0.67245333  0.37681765    -0.85900
O473        O  0.41182909  0.71412511  0.27539265    -0.72700
O474        O  0.39385395  0.67893366  0.33524604    -0.84800
Zr475      Zr  0.40993983  0.75770064  0.40247512     2.26400
Zr476      Zr  0.44262269  0.75211694  0.28744293     2.06300
Zr477      Zr  0.40298087  0.67875864  0.41279013     2.10000
Zr478      Zr  0.47595062  0.71088248  0.38796831     1.78800
O479        O  0.35668011  0.66934225  0.43947673    -0.93600
O480        O  0.51825863  0.72921371  0.35533081    -0.41400
O481        O  0.43352116  0.71628351  0.42502184    -0.78000
O482        O  0.45333954  0.75262934  0.36509780    -0.96700
O483        O  0.39986201  0.75846824  0.32522737    -0.90000
O484        O  0.37867378  0.72034853  0.39203649    -0.92900
C485        C  0.50217171  0.65381460  0.33976892     1.00900
C486        C  0.39706157  0.62115449  0.34700950     1.13800
C487        C  0.44923111  0.70922757  0.19780331     1.04600
O488        O  0.48978019  0.76369515  0.26819664    -0.95000
O489        O  0.44777080  0.80023352  0.30882887    -0.90800
O490        O  0.43208411  0.80127802  0.37994679    -0.83900
C491        C  0.44367923  0.81251752  0.34548971     1.11200
O492        O  0.34722509  0.69331296  0.25844188    -0.97000
Zr493      Zr  0.36963519  0.72056651  0.31448566     1.88900
O494        O  0.36515317  0.77906323  0.39392891    -0.73600
O495        O  0.42217526  0.78458650  0.23348203    -0.52900
O496        O  0.35719139  0.74874341  0.24912243    -0.97600
O497        O  0.32801837  0.69710182  0.34030563    -0.54800
O498        O  0.34108577  0.75758593  0.34080179    -0.74200
C499        C  0.34399583  0.77632899  0.36955254     0.98200
O500        O  0.40671006  0.79193394  0.46043043    -0.63000
O501        O  0.42023915  0.64376459  0.46596277    -0.57800
O502        O  0.41187012  0.74263947  0.48128337    -0.94500
O503        O  0.40364882  0.69624383  0.48695542    -0.92900
O504        O  0.48847978  0.68752683  0.45775985    -0.93300
O505        O  0.49703691  0.74196992  0.44009166    -0.92000
C506        C  0.40866152  0.71972183  0.50422057     1.17000
H507        H  0.45407392  0.65490422  0.38659834     0.33000
H508        H  0.46640078  0.76697536  0.37146047     0.43800
H509        H  0.36227613  0.72244447  0.40970588     0.37300
H510        H  0.40626460  0.71347230  0.24482852     0.33800
H511        H  0.53269415  0.72375881  0.37680352     0.25600
H512        H  0.43787214  0.79266998  0.21664184     0.31500
H513        H  0.33696677  0.74986431  0.25018423     0.37500
H514        H  0.47621390  0.67115803  0.46026555     0.31900
H515        H  0.40524526  0.63004842  0.46985278     0.30800
H516        H  0.35903396  0.65595125  0.46479200     0.32500
H517        H  0.32270188  0.70635814  0.36792879     0.31400
H518        H  0.48179528  0.74776651  0.45951880     0.35400
H519        H  0.42579520  0.79733429  0.46677579     0.28200
H520        H  0.45552071  0.63382752  0.23542516     0.32400
H521        H  0.36238242  0.68466487  0.24185858     0.35300
H522        H  0.43478976  0.63362907  0.45022396     0.27900
H523        H  0.39845740  0.80876645  0.44616088     0.40700
H524        H  0.49740335  0.77157858  0.29543253     0.30800
H525        H  0.52192913  0.71767132  0.32931481     0.38400
H526        H  0.33408897  0.67828048  0.35029358     0.30300
H527        H  0.41263799  0.77283017  0.21207900     0.30300
H528        H  0.42412481  0.63835973  0.22655770     0.30600
Zr529      Zr  0.16916876  0.93533410  0.00809165     2.17500
O530        O  0.13438939  0.93216626  0.06649785    -0.51800
O531        O  0.14926151  0.98184733  0.99565631    -0.75000
O532        O  0.18570996  0.94689726  0.08118866    -0.81800
O533        O  0.12589441  0.88678300  0.94125800    -0.83500
O534        O  0.23199847  0.94740450  0.08319487    -0.79100
O535        O  0.12460276  0.91389385  0.00172058    -0.90800
O536        O  0.17024342  0.00185669  0.93545778    -0.76700
O537        O  0.20710704  0.96422077  0.98825550    -0.86200
O538        O  0.16560343  0.94251716  0.92982078    -0.85900
O539        O  0.20850175  0.90760864  0.02940102    -0.72700
O540        O  0.17139187  0.88987181  0.97698038    -0.84800
Zr541      Zr  0.24590584  0.90133346  0.89666999     2.26400
Zr542      Zr  0.24647155  0.93683346  0.00833432     2.06300
Zr543      Zr  0.16776326  0.89724632  0.89891196     2.10000
Zr544      Zr  0.20423404  0.97070219  0.90969574     1.78800
O545        O  0.15747457  0.85002603  0.87711723    -0.93600
O546        O  0.23212250  0.01133016  0.92435623    -0.41400
O547        O  0.20540491  0.92642250  0.87782542    -0.78000
O548        O  0.24481829  0.94622712  0.92986709    -0.96700
O549        O  0.24943435  0.89255643  0.97455615    -0.90000
O550        O  0.20848539  0.87134376  0.91615016    -0.92900
C551        C  0.15246634  0.00173418  0.96655991     1.00900
C552        C  0.11421622  0.89589367  0.97635229     1.13800
C553        C  0.20842943  0.94922991  0.10183968     1.04600
O554        O  0.26342098  0.98358670  0.02045100    -0.95000
O555        O  0.29245755  0.93650302  0.97856514    -0.90800
O556        O  0.29172409  0.91893901  0.90956567    -0.83900
C557        C  0.30407935  0.92994942  0.94210182     1.11200
O558        O  0.18155303  0.84351245  0.05164705    -0.97000
Zr559      Zr  0.21168839  0.86363026  0.99446286     1.88900
O560        O  0.26152840  0.85357537  0.90223532    -0.73600
O561        O  0.27866394  0.91520074  0.06038008    -0.52900
O562        O  0.23742441  0.85143541  0.06128904    -0.97600
O563        O  0.18979982  0.82045730  0.97314154    -0.54800
O564        O  0.24971664  0.83562863  0.97009893    -0.74200
C565        C  0.26311480  0.83503238  0.93355515     0.98200
O566        O  0.28126493  0.90010469  0.83916623    -0.63000
O567        O  0.13008898  0.91554964  0.85410046    -0.57800
O568        O  0.22779830  0.90312691  0.82112021    -0.94500
O569        O  0.18178043  0.89727509  0.82124816    -0.92900
O570        O  0.17702682  0.98909025  0.84810891    -0.93300
O571        O  0.22942753  0.98194470  0.84152658    -0.92000
C572        C  0.20474599  0.90122375  0.80101887     1.17000
H573        H  0.14856834  0.95149756  0.92175728     0.33000
H574        H  0.25979624  0.95800849  0.92002079     0.43800
H575        H  0.20917857  0.85435366  0.90001015     0.37300
H576        H  0.20843247  0.90300047  0.06072890     0.33800
H577        H  0.22496115  0.02610688  0.90394390     0.25600
H578        H  0.28735299  0.93092720  0.07541152     0.31500
H579        H  0.25681559  0.85476963  0.05308162     0.37500
H580        H  0.16926011  0.97242000  0.83440853     0.31900
H581        H  0.11581963  0.92108092  0.87552540     0.30800
H582        H  0.13864044  0.85112127  0.86530351     0.32500
H583        H  0.19925093  0.81478747  0.94574438     0.31400
H584        H  0.24327790  0.96699541  0.83931507     0.35400
H585        H  0.27683096  0.88402317  0.82076341     0.28200
H586        H  0.13435108  0.95035209  0.08109506     0.32400
H587        H  0.19001126  0.82554388  0.06093977     0.35300
H588        H  0.13701066  0.93341110  0.84127461     0.27900
H589        H  0.27823146  0.91677573  0.81964555     0.40700
H590        H  0.27918212  0.98081673  0.04059418     0.30800
H591        H  0.22632263  0.01707630  0.95422063     0.38400
H592        H  0.17126635  0.82611914  0.96332840     0.30300
H593        H  0.26722626  0.90585939  0.08357564     0.30300
H594        H  0.14142902  0.91856074  0.08898934     0.30600
Zr595      Zr  0.16752088  0.93779179  0.51599761     2.17500
O596        O  0.13306950  0.92154215  0.56978992    -0.51800
O597        O  0.14829224  0.98369881  0.52875785    -0.75000
O598        O  0.18425037  0.93202695  0.59196609    -0.81800
O599        O  0.11952115  0.92826624  0.41962541    -0.83500
O600        O  0.23031392  0.92704213  0.59093781    -0.79100
O601        O  0.12224059  0.92347838  0.49442999    -0.90800
O602        O  0.17481273  0.01565230  0.49169763    -0.76700
O603        O  0.20884196  0.96404861  0.51562405    -0.86200
O604        O  0.16676159  0.96543422  0.44891518    -0.85900
O605        O  0.20337691  0.90347609  0.51749174    -0.72700
O606        O  0.16513817  0.90574942  0.45664194    -0.84800
Zr607      Zr  0.24207292  0.92655841  0.38866671     2.26400
Zr608      Zr  0.24490052  0.93022602  0.51400573     2.06300
Zr609      Zr  0.16524186  0.93372020  0.38973524     2.10000
Zr610      Zr  0.20812812  0.99139427  0.44847661     1.78800
O611        O  0.14271336  0.89681666  0.35000900    -0.93600
O612        O  0.23424115  0.02130197  0.49650080    -0.41400
O613        O  0.20636048  0.96068034  0.38739975    -0.78000
O614        O  0.24508568  0.95915274  0.44769058    -0.96700
O615        O  0.24288556  0.89838381  0.45487208    -0.90000
O616        O  0.20113798  0.89984897  0.38922285    -0.92900
C617        C  0.15429618  0.00868526  0.51603212     1.00900
C618        C  0.10897887  0.92279730  0.45793185     1.13800
C619        C  0.20727193  0.92776038  0.61141264     1.04600
O620        O  0.27125569  0.96532981  0.55153600    -0.95000
O621        O  0.29119226  0.93164215  0.48460968    -0.90800
O622        O  0.28873975  0.93583655  0.40955075    -0.83900
C623        C  0.30202923  0.93552243  0.44600551     1.11200
O624        O  0.16762476  0.84265716  0.49401848    -0.97000
Zr625      Zr  0.20149868  0.87256562  0.45677011     1.88900
O626        O  0.26026225  0.88029305  0.37687174    -0.73600
O627        O  0.27080722  0.89266269  0.55012681    -0.52900
O628        O  0.22127205  0.84408596  0.51673517    -0.97600
O629        O  0.17753984  0.84135282  0.40791352    -0.54800
O630        O  0.23840981  0.84825074  0.42108103    -0.74200
C631        C  0.25727932  0.85557181  0.39351646     0.98200
O632        O  0.27118259  0.93945268  0.32526034    -0.63000
O633        O  0.13731691  0.96980737  0.35362027    -0.57800
O634        O  0.22639537  0.93617904  0.31316911    -0.94500
O635        O  0.18027419  0.94093703  0.31360598    -0.92900
O636        O  0.18521885  0.02196175  0.39452138    -0.93300
O637        O  0.23986454  0.02253924  0.40893735    -0.92000
C638        C  0.20347349  0.94067842  0.29359111     1.17000
H639        H  0.15082422  0.97723960  0.44659058     0.33000
H640        H  0.26136797  0.97048090  0.44584832     0.43800
H641        H  0.20021490  0.88847278  0.36345879     0.37300
H642        H  0.20240365  0.89223359  0.54450425     0.33800
H643        H  0.22676707  0.04022777  0.49076039     0.25600
H644        H  0.28109898  0.90176497  0.57387180     0.31500
H645        H  0.24127600  0.84516454  0.51170729     0.37500
H646        H  0.19149436  0.01560323  0.36524509     0.31900
H647        H  0.12638405  0.97807597  0.37760427     0.30800
H648        H  0.15283616  0.89528498  0.32168165     0.32500
H649        H  0.18972838  0.83926220  0.38188695     0.31400
H650        H  0.25084436  0.01025159  0.38999868     0.35400
H651        H  0.27908954  0.95782351  0.33189248     0.28200
H652        H  0.13236558  0.93559882  0.59309633     0.32400
H653        H  0.17445029  0.82337906  0.49112226     0.35300
H654        H  0.15043127  0.98461137  0.34444107     0.27900
H655        H  0.28679005  0.92630798  0.32625469     0.40700
H656        H  0.25741733  0.97807704  0.56375129     0.30800
H657        H  0.22797157  0.01627817  0.52698351     0.38400
H658        H  0.16182335  0.85232506  0.39646887     0.30300
H659        H  0.25700098  0.88104082  0.56610233     0.30300
H660        H  0.14062167  0.90449833  0.58443535     0.30600
Zr661      Zr  0.93955760  0.84062823  0.01500358     2.17500
O662        O  0.94136645  0.87588521  0.07140675    -0.51800
O663        O  0.98846566  0.85274097  0.01848399    -0.75000
O664        O  0.93572598  0.82047492  0.09071961    -0.81800
O665        O  0.91642928  0.89524260  0.92776845    -0.83500
O666        O  0.92589230  0.77434965  0.09029545    -0.79100
O667        O  0.92273784  0.88783806  0.00173919    -0.90800
O668        O  0.01135445  0.82505297  0.97139550    -0.76700
O669        O  0.96041670  0.79637798  0.00542980    -0.86200
O670        O  0.95838887  0.84311965  0.94178531    -0.85900
O671        O  0.90271654  0.80730733  0.02295125    -0.72700
O672        O  0.90222821  0.84860136  0.96470277    -0.84800
Zr673      Zr  0.90604178  0.77297510  0.88923661     2.26400
Zr674      Zr  0.92401283  0.76283815  0.01192957     2.06300
Zr675      Zr  0.92111629  0.85078490  0.89157844     2.10000
Zr676      Zr  0.97865993  0.79868598  0.93194635     1.78800
O677        O  0.88347208  0.87366777  0.85234682    -0.93600
O678        O  0.01088056  0.76505510  0.96403453    -0.41400
O679        O  0.94182952  0.80665363  0.88213924    -0.78000
O680        O  0.94398183  0.76428535  0.93898987    -0.96700
O681        O  0.88678460  0.77078157  0.96196943    -0.90000
O682        O  0.88477737  0.81717570  0.89757004    -0.92900
C683        C  0.01052808  0.84408832  0.99991241     1.00900
C684        C  0.91645892  0.90347850  0.96799057     1.13800
C685        C  0.93028463  0.79703535  0.11073285     1.04600
O686        O  0.96132970  0.73657602  0.04623350    -0.95000
O687        O  0.92340485  0.71723046  0.97772624    -0.90800
O688        O  0.91596938  0.72416039  0.90390251    -0.83900
C689        C  0.92177423  0.70855303  0.93777145     1.11200
O690        O  0.84562356  0.85236276  0.01284381    -0.97000
Zr691      Zr  0.86633237  0.81509767  0.97122496     1.88900
O692        O  0.85703474  0.76364368  0.88359196    -0.73600
O693        O  0.88851917  0.73489525  0.04875255    -0.52900
O694        O  0.84144280  0.79984012  0.03792098    -0.97600
O695        O  0.83175791  0.84100891  0.92898474    -0.54800
O696        O  0.83713686  0.77826182  0.94655111    -0.74200
C697        C  0.83731000  0.76362636  0.91184428     0.98200
O698        O  0.89833446  0.74529704  0.82389257    -0.63000
O699        O  0.95437472  0.88314276  0.85862967    -0.57800
O700        O  0.92225937  0.78947811  0.81607624    -0.94500
O701        O  0.92939082  0.83608357  0.81538606    -0.92900
O702        O  0.00481590  0.82395854  0.87474256    -0.93300
O703        O  0.99617998  0.76785821  0.87577057    -0.92000
C704        C  0.92943482  0.81245736  0.79625051     1.17000
H705        H  0.97145777  0.85807361  0.93794001     0.33000
H706        H  0.95426946  0.74774292  0.93282909     0.43800
H707        H  0.87103787  0.82034808  0.87513569     0.37300
H708        H  0.89399139  0.80814152  0.05160999     0.33800
H709        H  0.01309326  0.77051147  0.99520057     0.25600
H710        H  0.89808664  0.72457823  0.07301547     0.31500
H711        H  0.83823631  0.77968825  0.03446017     0.37500
H712        H  0.02408797  0.81858367  0.88025044     0.31900
H713        H  0.96868810  0.87117686  0.84579447     0.30800
H714        H  0.88905341  0.87417890  0.82073024     0.32500
H715        H  0.82541316  0.82825300  0.90603600     0.31400
H716        H  0.98059963  0.76530418  0.85544282     0.35400
H717        H  0.91525477  0.73428031  0.81995539     0.28200
H718        H  0.95704346  0.87071387  0.09055840     0.32400
H719        H  0.86116006  0.86124274  0.02787322     0.35300
H720        H  0.94495520  0.89173055  0.83263623     0.27900
H721        H  0.88428586  0.73132555  0.83269688     0.40700
H722        H  0.95348203  0.71800613  0.05364110     0.30800
H723        H  0.00065733  0.74728377  0.96624988     0.38400
H724        H  0.84198412  0.85578253  0.91237057     0.30300
H725        H  0.87687144  0.74851151  0.06401125     0.30300
H726        H  0.92490512  0.87289513  0.09029278     0.30600
Zr727      Zr  0.94287282  0.84529840  0.50758130     2.17500
O728        O  0.94332711  0.88458681  0.55697305    -0.51800
O729        O  0.98776833  0.86694636  0.49505325    -0.75000
O730        O  0.95094465  0.83183910  0.58552396    -0.81800
O731        O  0.89334983  0.88421888  0.43022957    -0.83500
O732        O  0.95787916  0.78525240  0.59071343    -0.79100
O733        O  0.91576643  0.88686762  0.49583090    -0.90800
O734        O  0.00640096  0.84945961  0.43284099    -0.76700
O735        O  0.97378563  0.80845201  0.49321497    -0.86200
O736        O  0.95006631  0.84766869  0.42911282    -0.85900
O737        O  0.91801357  0.80420961  0.53189469    -0.72700
O738        O  0.89910800  0.83900774  0.47311025    -0.84800
Zr739      Zr  0.91439619  0.76212870  0.40345198     2.26400
Zr740      Zr  0.94937593  0.76734318  0.51705308     2.06300
Zr741      Zr  0.90665105  0.84119164  0.39473972     2.10000
Zr742      Zr  0.98016722  0.80986363  0.41461486     1.78800
O743        O  0.86065148  0.85058087  0.36743242    -0.93600
O744        O  0.02232634  0.78904906  0.44275525    -0.41400
O745        O  0.93719704  0.80400436  0.38018071    -0.78000
O746        O  0.95829191  0.76778560  0.43837896    -0.96700
O747        O  0.90622738  0.75998208  0.48132927    -0.90000
O748        O  0.88318893  0.79914195  0.41666675    -0.92900
C749        C  0.00621223  0.86634885  0.46458715     1.00900
C750        C  0.89924476  0.89644083  0.46635554     1.13800
C751        C  0.95554202  0.80923873  0.60818659     1.04600
O752        O  0.99593607  0.75416332  0.53692663    -0.95000
O753        O  0.95535130  0.72000610  0.49427831    -0.90800
O754        O  0.93593592  0.71826006  0.42610726    -0.83900
C755        C  0.94927376  0.70734915  0.45889618     1.11200
O756        O  0.85581112  0.81883276  0.55959338    -0.97000
Zr757      Zr  0.87560027  0.79707958  0.49487230     1.88900
O758        O  0.86842779  0.74255506  0.40935074    -0.73600
O759        O  0.92801628  0.73539917  0.57117930    -0.52900
O760        O  0.86742228  0.76241506  0.55420595    -0.97600
O761        O  0.83476262  0.82436467  0.47766504    -0.54800
O762        O  0.84505239  0.76313805  0.46455350    -0.74200
C763        C  0.84703318  0.74557523  0.43365626     0.98200
O764        O  0.91528276  0.72865626  0.34418225    -0.63000
O765        O  0.92553651  0.87800437  0.34611714    -0.57800
O766        O  0.91306184  0.77642593  0.32482077    -0.94500
O767        O  0.90853865  0.82348980  0.31929415    -0.92900
O768        O  0.99416383  0.83429687  0.34615488    -0.93300
O769        O  0.99869101  0.78051284  0.35716870    -0.92000
C770        C  0.91139486  0.79943108  0.30197750     1.17000
H771        H  0.95750001  0.86547206  0.41938109     0.33000
H772        H  0.97114010  0.75341865  0.43078821     0.43800
H773        H  0.86648325  0.79736914  0.40009189     0.37300
H774        H  0.91271079  0.80438717  0.56271486     0.33800
H775        H  0.03598190  0.79248338  0.41883850     0.25600
H776        H  0.94350139  0.72563902  0.58590903     0.31500
H777        H  0.84758685  0.75837066  0.55321880     0.37500
H778        H  0.97922801  0.83094224  0.32492664     0.31900
H779        H  0.91123484  0.88175188  0.32359338     0.30800
H780        H  0.86235014  0.86813959  0.34957013     0.32500
H781        H  0.82646246  0.81530995  0.45195708     0.31400
H782        H  0.98402893  0.76687991  0.35154406     0.35400
H783        H  0.93487607  0.72436594  0.33916914     0.28200
H784        H  0.96118484  0.88385892  0.57226301     0.32400
H785        H  0.83781491  0.80974133  0.56439503     0.35300
H786        H  0.92584678  0.89492936  0.36398189     0.27900
H787        H  0.90729581  0.71123495  0.35691279     0.40700
H788        H  0.00471740  0.74930509  0.50853233     0.30800
H789        H  0.02818113  0.80123132  0.46681702     0.38400
H790        H  0.84182566  0.84231450  0.46531397     0.30300
H791        H  0.92020170  0.74731906  0.59425854     0.30300
H792        H  0.92948499  0.88031412  0.58033711     0.30600
Zr793      Zr  0.66442461  0.57757353  0.81213107     2.17500
O794        O  0.62805653  0.57593120  0.75697773    -0.51800
O795        O  0.64541563  0.53034572  0.82085875    -0.75000
O796        O  0.68108348  0.57301270  0.73640070    -0.81800
O797        O  0.61931516  0.62087428  0.88857497    -0.83500
O798        O  0.72743491  0.57259801  0.73436995    -0.79100
O799        O  0.62126166  0.60123819  0.82089418    -0.90800
O800        O  0.66521955  0.50979581  0.88132681    -0.76700
O801        O  0.70389847  0.55001996  0.82658067    -0.86200
O802        O  0.66140466  0.56607059  0.88948519    -0.85900
O803        O  0.70247401  0.60814509  0.79415461    -0.72700
O804        O  0.66436674  0.62065016  0.85053763    -0.84800
Zr805      Zr  0.74017496  0.61000199  0.92614695     2.26400
Zr806      Zr  0.74205753  0.58008910  0.81017498     2.06300
Zr807      Zr  0.66179645  0.60895651  0.92784837     2.10000
Zr808      Zr  0.70153986  0.53895999  0.90394779     1.78800
O809        O  0.64721333  0.65217516  0.96082654    -0.93600
O810        O  0.72492662  0.50007788  0.87019717    -0.41400
O811        O  0.70138689  0.58137142  0.94201329    -0.78000
O812        O  0.74083315  0.56676698  0.88754732    -0.96700
O813        O  0.74242939  0.62268227  0.84926959    -0.90000
O814        O  0.70072141  0.63844039  0.91261976    -0.92900
C815        C  0.64779790  0.51043685  0.85003485     1.00900
C816        C  0.60931935  0.61564234  0.85025886     1.13800
C817        C  0.70398031  0.57203140  0.71543081     1.04600
O818        O  0.76057552  0.53492991  0.79125811    -0.95000
O819        O  0.78842162  0.57896544  0.83916203    -0.90800
O820        O  0.78613048  0.59308533  0.91026848    -0.83900
C821        C  0.79926032  0.58357797  0.87698774     1.11200
O822        O  0.67456918  0.66910257  0.77501265    -0.97000
Zr823      Zr  0.70267520  0.65001818  0.83512991     1.88900
O824        O  0.75631062  0.65799157  0.92146767    -0.73600
O825        O  0.77183722  0.60694171  0.75991578    -0.52900
O826        O  0.72562368  0.67418904  0.77329437    -0.97600
O827        O  0.67434612  0.68618375  0.86685757    -0.54800
O828        O  0.73921733  0.67940009  0.85967833    -0.74200
C829        C  0.75524307  0.67840853  0.89306173     0.98200
O830        O  0.77098905  0.61447756  0.98897411    -0.63000
O831        O  0.62620463  0.58412719  0.97003307    -0.57800
O832        O  0.72383011  0.60216758  0.00252681    -0.94500
O833        O  0.67745427  0.60323071  0.00460772    -0.92900
O834        O  0.68036885  0.51928903  0.97118166    -0.93300
O835        O  0.73168667  0.51870842  0.96028252    -0.92000
C836        C  0.70086378  0.60024949  0.02359655     1.17000
H837        H  0.64469036  0.55628214  0.89696590     0.33000
H838        H  0.75603712  0.55491048  0.89570394     0.43800
H839        H  0.70064661  0.65473301  0.93069304     0.37300
H840        H  0.70229218  0.61476556  0.76361912     0.33800
H841        H  0.72005657  0.48369723  0.88935809     0.25600
H842        H  0.77948475  0.59318690  0.73946226     0.31500
H843        H  0.74303305  0.66397545  0.76954481     0.37500
H844        H  0.67842891  0.53520314  0.99104583     0.31900
H845        H  0.61233176  0.57896735  0.94797260     0.30800
H846        H  0.63087067  0.64691164  0.97874026     0.32500
H847        H  0.65537834  0.68131856  0.85872440     0.31400
H848        H  0.73763276  0.53474027  0.97769303     0.35400
H849        H  0.77863149  0.59561264  0.99485312     0.28200
H850        H  0.63081376  0.55843733  0.74101364     0.32400
H851        H  0.65917504  0.65583897  0.77282454     0.35300
H852        H  0.63476338  0.56622814  0.97943107     0.27900
H853        H  0.78666142  0.62570362  0.97771395     0.40700
H854        H  0.77393449  0.53911680  0.76716384     0.30800
H855        H  0.71508891  0.49704630  0.84214581     0.38400
H856        H  0.67855526  0.70321006  0.84876509     0.30300
H857        H  0.75927073  0.61844961  0.74135015     0.30300
H858        H  0.63199078  0.59106591  0.73480949     0.30600
Zr859      Zr  0.66571667  0.57555682  0.31002112     2.17500
O860        O  0.63092414  0.58001311  0.25235636    -0.51800
O861        O  0.64443403  0.52925597  0.31574812    -0.75000
O862        O  0.68266191  0.57193820  0.23387728    -0.81800
O863        O  0.61829563  0.60651972  0.39384006    -0.83500
O864        O  0.72890954  0.57361001  0.23247158    -0.79100
O865        O  0.62165031  0.59686818  0.32087969    -0.90800
O866        O  0.66457040  0.50490438  0.37254025    -0.76700
O867        O  0.70461859  0.54652911  0.32237320    -0.86200
O868        O  0.66240104  0.56045317  0.38597711    -0.85900
O869        O  0.70399769  0.60619225  0.29574547    -0.72700
O870        O  0.66563869  0.61697918  0.35325468    -0.84800
Zr871      Zr  0.74129025  0.60099404  0.42862692     2.26400
Zr872      Zr  0.74310923  0.57678304  0.30923302     2.06300
Zr873      Zr  0.66309898  0.60120086  0.42899741     2.10000
Zr874      Zr  0.70174655  0.53202955  0.39873147     1.78800
O875        O  0.64835743  0.64502028  0.45991372    -0.93600
O876        O  0.72324626  0.49058978  0.36965161    -0.41400
O877        O  0.70214859  0.57227815  0.44216798    -0.78000
O878        O  0.74138415  0.55988110  0.38480691    -0.96700
O879        O  0.74419549  0.61727919  0.35342314    -0.90000
O880        O  0.70233497  0.63055063  0.41760277    -0.92900
C881        C  0.64648758  0.50798118  0.34244333     1.00900
C882        C  0.60818562  0.60488033  0.35463582     1.13800
C883        C  0.70565766  0.57283983  0.21301494     1.04600
O884        O  0.76077776  0.53252581  0.28428675    -0.95000
O885        O  0.78952571  0.57419779  0.33777710    -0.90800
O886        O  0.78717633  0.58506507  0.41048748    -0.83900
C887        C  0.80029497  0.57699358  0.37617607     1.11200
O888        O  0.67253905  0.67347233  0.29810900    -0.97000
Zr889      Zr  0.70506881  0.64589671  0.34178273     1.88900
O890        O  0.75606771  0.64920021  0.43260442    -0.73600
O891        O  0.77423542  0.60487780  0.26312830    -0.52900
O892        O  0.72462099  0.66497383  0.27285017    -0.97600
O893        O  0.68597482  0.68698100  0.37607077    -0.54800
O894        O  0.74552434  0.66978641  0.36642959    -0.74200
C895        C  0.75905088  0.66850343  0.40265547     0.98200
O896        O  0.77645150  0.60099150  0.48591362    -0.63000
O897        O  0.62894342  0.57736307  0.47563476    -0.57800
O898        O  0.72426916  0.59104623  0.50397584    -0.94500
O899        O  0.67812155  0.59529319  0.50545546    -0.92900
O900        O  0.67932531  0.51587188  0.46713374    -0.93300
O901        O  0.73271648  0.50832860  0.45045124    -0.92000
C902        C  0.70118686  0.59090524  0.52466177     1.17000
H903        H  0.64540339  0.55098899  0.39270814     0.33000
H904        H  0.75658856  0.54766834  0.39150577     0.43800
H905        H  0.70231844  0.64574978  0.43787581     0.37300
H906        H  0.70376047  0.61381257  0.26580553     0.33800
H907        H  0.71238966  0.47483181  0.38231249     0.25600
H908        H  0.78027159  0.59246771  0.23934649     0.31500
H909        H  0.73043526  0.68405862  0.27990993     0.37500
H910        H  0.66014506  0.52226781  0.46420148     0.31900
H911        H  0.61717234  0.59242860  0.48678423     0.30800
H912        H  0.63426403  0.65232809  0.43918056     0.32500
H913        H  0.69815995  0.69094698  0.40120298     0.31400
H914        H  0.74190401  0.52351330  0.46608711     0.35400
H915        H  0.77032613  0.61441480  0.50817360     0.28200
H916        H  0.63174314  0.56267872  0.23545124     0.32400
H917        H  0.66570595  0.66061450  0.27566894     0.35300
H918        H  0.61711268  0.56714134  0.45517535     0.27900
H919        H  0.77549540  0.58248687  0.50127861     0.40700
H920        H  0.76565550  0.52205193  0.31191853     0.30800
H921        H  0.71879098  0.49110431  0.33765481     0.38400
H922        H  0.66866207  0.68053673  0.39011510     0.30300
H923        H  0.76242107  0.61891433  0.24801428     0.30300
H924        H  0.63707626  0.59505211  0.23142006     0.30600
Zr925      Zr  0.06827898  0.16176680  0.01643745     2.17500
O926        O  0.07204925  0.12105291  0.06659370    -0.51800
O927        O  0.02281070  0.14064431  0.01200233    -0.75000
O928        O  0.06541133  0.17237094  0.09549119    -0.81800
O929        O  0.10188528  0.12210264  0.92205279    -0.83500
O930        O  0.06009169  0.21903938  0.10013695    -0.79100
O931        O  0.09076043  0.11903188  0.99508297    -0.90800
O932        O  0.99943066  0.16330730  0.95691778    -0.76700
O933        O  0.03761832  0.20027619  0.00833038    -0.86200
O934        O  0.05520781  0.16352397  0.94032173    -0.85900
O935        O  0.09527634  0.20176205  0.03515713    -0.72700
O936        O  0.10978498  0.16719234  0.97365086    -0.84800
Zr937      Zr  0.09183862  0.24898654  0.90727371     2.26400
Zr938      Zr  0.06424389  0.24027181  0.02615792     2.06300
Zr939      Zr  0.09610166  0.17016410  0.89761589     2.10000
Zr940      Zr  0.02545753  0.20253484  0.93182759     1.78800
O941        O  0.14181479  0.16120339  0.86896607    -0.93600
O942        O  0.98442325  0.22262409  0.96425760    -0.41400
O943        O  0.06602594  0.20881997  0.88927868    -0.78000
O944        O  0.05003916  0.24314739  0.95010801    -0.96700
O945        O  0.10526697  0.24697231  0.98318409    -0.90000
O946        O  0.12256754  0.21051697  0.91414434    -0.92900
C947        C  0.00216558  0.14383838  0.98621659     1.00900
C948        C  0.09984214  0.10857231  0.95922197     1.13800
C949        C  0.06266396  0.19452330  0.11795251     1.04600
O950        O  0.01925311  0.25291418  0.05415490    -0.95000
O951        O  0.05739336  0.28873576  0.00289575    -0.90800
O952        O  0.07059451  0.29198057  0.93044668    -0.83900
C953        C  0.05998575  0.30209461  0.96553221     1.11200
O954        O  0.15920927  0.17690950  0.04216804    -0.97000
Zr955      Zr  0.13524687  0.20807617  0.99031775     1.88900
O956        O  0.13775434  0.26932128  0.91075417    -0.73600
O957        O  0.08758428  0.27050209  0.07719927    -0.52900
O958        O  0.15557479  0.22797965  0.05567177    -0.97600
O959        O  0.17316516  0.18763796  0.94990691    -0.54800
O960        O  0.16034150  0.24954743  0.96916281    -0.74200
C961        C  0.15800147  0.26785203  0.93774258     0.98200
O962        O  0.09387274  0.28489348  0.84825443    -0.63000
O963        O  0.07656777  0.13853395  0.84453502    -0.57800
O964        O  0.08590170  0.23695132  0.82888480    -0.94500
O965        O  0.08972978  0.19005925  0.82371838    -0.92900
O966        O  0.00993635  0.18054512  0.86481453    -0.93300
O967        O  0.00263044  0.23373756  0.87863128    -0.92000
C968        C  0.08571670  0.21446722  0.80653660     1.17000
H969        H  0.04661061  0.14641721  0.93182155     0.33000
H970        H  0.03676356  0.25770322  0.94489999     0.43800
H971        H  0.13811088  0.21297191  0.89448015     0.37300
H972        H  0.10256224  0.20031776  0.06478854     0.33800
H973        H  0.98300291  0.21390150  0.99436548     0.25600
H974        H  0.09833100  0.25781795  0.09686001     0.31500
H975        H  0.14396190  0.24428166  0.06198248     0.37500
H976        H  0.02635800  0.17988948  0.84550247     0.31900
H977        H  0.09162092  0.12585490  0.83638967     0.30800
H978        H  0.13872850  0.15113261  0.84130017     0.32500
H979        H  0.17086735  0.16728191  0.95452706     0.31400
H980        H  0.01660541  0.24787080  0.87017307     0.35400
H981        H  0.07486180  0.29167094  0.84450338     0.28200
H982        H  0.05568501  0.12119331  0.08606466     0.32400
H983        H  0.14490598  0.16399535  0.05377912     0.35300
H984        H  0.06343555  0.12666425  0.86159909     0.27900
H985        H  0.10383594  0.30070534  0.86090122     0.40700
H986        H  0.02307482  0.26512096  0.07923782     0.30800
H987        H  0.98921005  0.24227297  0.96939864     0.38400
H988        H  0.18964549  0.19224212  0.96714523     0.30300
H989        H  0.10150591  0.28048455  0.05878897     0.30300
H990        H  0.08776530  0.12468756  0.08618844     0.30600
Zr991      Zr  0.06558210  0.17007071  0.52722161     2.17500
O992        O  0.06049858  0.13617098  0.58871973    -0.51800
O993        O  0.01760672  0.15427485  0.52289823    -0.75000
O994        O  0.06510022  0.19199143  0.59980790    -0.81800
O995        O  0.09580327  0.11490243  0.45315521    -0.83500
O996        O  0.07236528  0.23853159  0.59243151    -0.79100
O997        O  0.08789911  0.12500976  0.52533833    -0.90800
O998        O  0.99526268  0.18611751  0.47995150    -0.76700
O999        O  0.04327022  0.21298043  0.50921170    -0.86200
O1000       O  0.05071222  0.16542048  0.45244490    -0.85900
O1001       O  0.10059097  0.20515726  0.53337186    -0.72700
O1002       O  0.10575140  0.16287796  0.48266911    -0.84800
Zr1003     Zr  0.10260791  0.23662101  0.39516601     2.26400
Zr1004     Zr  0.07806750  0.24802950  0.51347425     2.06300
Zr1005     Zr  0.09091082  0.15811040  0.40839502     2.10000
Zr1006     Zr  0.02913826  0.20877659  0.43419954     1.78800
O1007       O  0.13167439  0.13760004  0.37582800    -0.93600
O1008       O  0.99880376  0.24737613  0.45118520    -0.41400
O1009       O  0.06871033  0.20108813  0.38999179    -0.78000
O1010       O  0.06195593  0.24503137  0.43881592    -0.96700
O1011       O  0.11793569  0.24079592  0.46927266    -0.90000
O1012       O  0.12532622  0.19375210  0.41241754    -0.92900
C1013       C  0.99570741  0.16407942  0.50470283     1.00900
C1014       C  0.09559559  0.10858161  0.49498685     1.13800
C1015       C  0.06861329  0.21620503  0.61611565     1.04600
O1016       O  0.03728734  0.27442179  0.53216820    -0.95000
O1017       O  0.08415552  0.29286342  0.47506095    -0.90800
O1018       O  0.09074643  0.28524464  0.40198024    -0.83900
C1019       C  0.08586156  0.30126824  0.43423772     1.11200
O1020       O  0.15538703  0.16439042  0.54399458    -0.97000
Zr1021     Zr  0.13986011  0.19793826  0.48739202     1.88900
O1022       O  0.15069312  0.25088225  0.39520764    -0.73600
O1023       O  0.10797699  0.27589741  0.55876506    -0.52900
O1024       O  0.16423434  0.21791780  0.54897452    -0.97600
O1025       O  0.17606285  0.17048622  0.45384435    -0.54800
O1026       O  0.16946230  0.23452862  0.45928780    -0.74200
C1027       C  0.16973615  0.25038080  0.42443241     0.98200
O1028       O  0.10960641  0.26303580  0.32559004    -0.63000
O1029       O  0.06176761  0.12373820  0.37426735    -0.57800
O1030       O  0.09256742  0.21636735  0.32363609    -0.94500
O1031       O  0.08648593  0.16962663  0.32942281    -0.92900
O1032       O  0.00247981  0.17963091  0.38596151    -0.93300
O1033       O  0.01161446  0.23084408  0.36628142    -0.92000
C1034       C  0.08706220  0.19274665  0.30676555     1.17000
H1035       H  0.03841056  0.14992894  0.44909748     0.33000
H1036       H  0.05186585  0.26144757  0.42957971     0.43800
H1037       H  0.14026217  0.19092169  0.39195660     0.37300
H1038       H  0.10797948  0.20542349  0.56293642     0.33800
H1039       H  0.98113418  0.24273661  0.43733995     0.25600
H1040       H  0.12266059  0.28260065  0.53837725     0.31500
H1041       H  0.15450251  0.23555775  0.55451483     0.37500
H1042       H  0.01596793  0.16664357  0.37335067     0.31900
H1043       H  0.07469339  0.11034658  0.36123264     0.30800
H1044       H  0.13484080  0.12007623  0.39316652     0.32500
H1045       H  0.18259698  0.18169908  0.42779803     0.31400
H1046       H  0.02380256  0.24700213  0.36036804     0.35400
H1047       H  0.09212557  0.27290303  0.31989686     0.28200
H1048       H  0.04345875  0.14133908  0.60430412     0.32400
H1049       H  0.17539805  0.16269248  0.53962289     0.35300
H1050       H  0.05298516  0.11319521  0.39922497     0.27900
H1051       H  0.12277647  0.27795883  0.33223770     0.40700
H1052       H  0.03121701  0.28308533  0.50367327     0.30800
H1053       H  0.99522407  0.24527378  0.48345874     0.38400
H1054       H  0.16659632  0.15435981  0.44126195     0.30300
H1055       H  0.09716428  0.29274252  0.56526790     0.30300
H1056       H  0.07540618  0.14014182  0.60974911     0.30600
Zr1057     Zr  0.34109107  0.43970707  0.82019469     2.17500
O1058       O  0.37746858  0.43573000  0.76481673    -0.51800
O1059       O  0.35923005  0.48748313  0.81390171    -0.75000
O1060       O  0.32489809  0.43594767  0.74360338    -0.81800
O1061       O  0.38709846  0.41364422  0.91470942    -0.83500
O1062       O  0.27852615  0.43524119  0.74265579    -0.79100
O1063       O  0.38563641  0.42022463  0.84002466    -0.90800
O1064       O  0.33674020  0.51408871  0.86336555    -0.76700
O1065       O  0.30041756  0.46698205  0.82439352    -0.86200
O1066       O  0.34171465  0.45933833  0.89194739    -0.85900
O1067       O  0.30383296  0.40703771  0.81314857    -0.72700
O1068       O  0.34193266  0.40112638  0.87316857    -0.84800
Zr1069     Zr  0.26422362  0.41663664  0.94273426     2.26400
Zr1070     Zr  0.26306135  0.43482072  0.81927330     2.06300
Zr1071     Zr  0.34169774  0.42106449  0.94440166     2.10000
Zr1072     Zr  0.30076824  0.48626147  0.89612879     1.78800
O1073       O  0.35680557  0.37950799  0.98577646    -0.93600
O1074       O  0.27709989  0.52117574  0.85016281    -0.41400
O1075       O  0.30129776  0.44862280  0.94953520    -0.78000
O1076       O  0.26269001  0.45558020  0.89042294    -0.96700
O1077       O  0.26386803  0.39674232  0.87177239    -0.90000
O1078       O  0.30457733  0.38888303  0.93921275    -0.92900
C1079       C  0.35547449  0.51023612  0.83447747     1.00900
C1080       C  0.39813401  0.41323826  0.87606893     1.13800
C1081       C  0.30190953  0.43427666  0.72319453     1.04600
O1082       O  0.24268791  0.47696484  0.78700310    -0.95000
O1083       O  0.21610698  0.43496239  0.84788475    -0.90800
O1084       O  0.21751387  0.42799996  0.92252323    -0.83900
C1085       C  0.20453077  0.43301847  0.88635887     1.11200
O1086       O  0.34277817  0.34765404  0.83012450    -0.97000
Zr1087     Zr  0.30435164  0.36967896  0.86729767     1.88900
O1088       O  0.24569249  0.36936081  0.94806115    -0.73600
O1089       O  0.23448405  0.40329975  0.77798034    -0.52900
O1090       O  0.28867348  0.34518023  0.80264907    -0.97600
O1091       O  0.32101724  0.33079886  0.91370915    -0.54800
O1092       O  0.26299650  0.34557882  0.89052185    -0.74200
C1093       C  0.24568773  0.34863802  0.92209453     0.98200
O1094       O  0.23559449  0.42379419  0.00789539    -0.63000
O1095       O  0.37333692  0.44907441  0.98653544    -0.57800
O1096       O  0.27922908  0.42341024  0.01853092    -0.94500
O1097       O  0.32530726  0.42822508  0.01842593    -0.92900
O1098       O  0.32055028  0.51081224  0.95772231    -0.93300
O1099       O  0.26705464  0.51165445  0.93887153    -0.92000
C1100       C  0.30202113  0.42803103  0.03799379     1.17000
H1101       H  0.35800484  0.47016000  0.89674829     0.33000
H1102       H  0.24657133  0.46687065  0.89425556     0.43800
H1103       H  0.30473101  0.37487950  0.96285688     0.37300
H1104       H  0.30457124  0.39762276  0.78545459     0.33800
H1105       H  0.28373044  0.53926462  0.86070953     0.25600
H1106       H  0.22475280  0.41541956  0.75611654     0.31500
H1107       H  0.26900755  0.34988992  0.80022443     0.37500
H1108       H  0.31496963  0.49987049  0.98464518     0.31900
H1109       H  0.38435828  0.43534607  0.00390161     0.30800
H1110       H  0.37700272  0.38085746  0.98646296     0.32500
H1111       H  0.30676697  0.32743570  0.93671107     0.31400
H1112       H  0.26056765  0.49801071  0.96188042     0.35400
H1113       H  0.22625833  0.44191070  0.00249743     0.28200
H1114       H  0.37470443  0.45127787  0.74294360     0.32400
H1115       H  0.33964004  0.32734405  0.83343440     0.35300
H1116       H  0.38630894  0.45734157  0.96451565     0.27900
H1117       H  0.22100574  0.40960006  0.00687971     0.40700
H1118       H  0.22583442  0.47053067  0.77243529     0.30800
H1119       H  0.28525001  0.51977882  0.82018249     0.38400
H1120       H  0.33677323  0.33836873  0.92990011     0.30300
H1121       H  0.24734999  0.39229517  0.76005444     0.30300
H1122       H  0.37361767  0.41858330  0.74858364     0.30600
Zr1123     Zr  0.33905160  0.44371705  0.32150648     2.17500
O1124       O  0.37466283  0.45336000  0.26585492    -0.51800
O1125       O  0.35325428  0.49262221  0.32593755    -0.75000
O1126       O  0.32188532  0.44684591  0.24601914    -0.81800
O1127       O  0.38635711  0.40332410  0.39974614    -0.83500
O1128       O  0.27557874  0.44678071  0.24589675    -0.79100
O1129       O  0.38319327  0.42071911  0.32887561    -0.90800
O1130       O  0.32871841  0.51194795  0.38084078    -0.76700
O1131       O  0.29741830  0.46764930  0.33567537    -0.86200
O1132       O  0.34088199  0.45460874  0.39808872    -0.85900
O1133       O  0.30326051  0.41061678  0.30581853    -0.72700
O1134       O  0.34158635  0.39996616  0.36211127    -0.84800
Zr1135     Zr  0.26523596  0.40321390  0.43878120     2.26400
Zr1136     Zr  0.26165085  0.43503296  0.32148370     2.06300
Zr1137     Zr  0.34322627  0.41094746  0.43841030     2.10000
Zr1138     Zr  0.29869280  0.47770250  0.41245254     1.78800
O1139       O  0.36103801  0.36777840  0.47141814    -0.93600
O1140       O  0.26932614  0.51505328  0.38377024    -0.41400
O1141       O  0.30162027  0.43485385  0.45364547    -0.78000
O1142       O  0.26169692  0.44719383  0.39807567    -0.96700
O1143       O  0.26391584  0.39175108  0.36267537    -0.90000
O1144       O  0.30677904  0.37868029  0.42541748    -0.92900
C1145       C  0.34647653  0.51328087  0.34972909     1.00900
C1146       C  0.39579251  0.40748052  0.36016859     1.13800
C1147       C  0.29881046  0.44772971  0.22596253     1.04600
O1148       O  0.23662628  0.47711631  0.29998665    -0.95000
O1149       O  0.21543889  0.43134881  0.35041058    -0.90800
O1150       O  0.21843362  0.41818990  0.42326083    -0.83900
C1151       C  0.20487814  0.42645387  0.38892247     1.11200
O1152       O  0.33850874  0.34850437  0.29722293    -0.97000
Zr1153     Zr  0.30550008  0.36791578  0.34873241     1.88900
O1154       O  0.25165251  0.35444431  0.43412171    -0.73600
O1155       O  0.23583715  0.40580016  0.27208153    -0.52900
O1156       O  0.28609401  0.35005847  0.28105359    -0.97600
O1157       O  0.33044633  0.32904372  0.38338148    -0.54800
O1158       O  0.26833746  0.33729416  0.37037503    -0.74200
C1159       C  0.25252073  0.33596215  0.40428402     0.98200
O1160       O  0.23424795  0.39336526  0.50114394    -0.63000
O1161       O  0.37786618  0.43706182  0.47751746    -0.57800
O1162       O  0.28162731  0.40722789  0.51506815    -0.94500
O1163       O  0.32790706  0.41095436  0.51516131    -0.92900
O1164       O  0.32287449  0.49739012  0.47442940    -0.93300
O1165       O  0.26869759  0.49442551  0.47059632    -0.92000
C1166       C  0.30463782  0.41000543  0.53515161     1.17000
H1167       H  0.35657854  0.46593635  0.40467615     0.33000
H1168       H  0.24572304  0.45787370  0.40559468     0.43800
H1169       H  0.30802707  0.36235385  0.44474547     0.37300
H1170       H  0.30375153  0.40444730  0.27575280     0.33800
H1171       H  0.27635671  0.53209466  0.39739570     0.25600
H1172       H  0.22378937  0.41885583  0.25529757     0.31500
H1173       H  0.26643354  0.35488723  0.28255684     0.37500
H1174       H  0.32728745  0.48117684  0.49415477     0.31900
H1175       H  0.36747609  0.44966611  0.49674885     0.30800
H1176       H  0.37515540  0.37365873  0.49256728     0.32500
H1177       H  0.31768674  0.32047977  0.40546395     0.31400
H1178       H  0.26158569  0.47728808  0.48566534     0.35400
H1179       H  0.22536953  0.41132649  0.50768633     0.28200
H1180       H  0.36878367  0.47033609  0.24902626     0.32400
H1181       H  0.33488265  0.32821968  0.29752220     0.35300
H1182       H  0.38635549  0.42334247  0.49839692     0.27900
H1183       H  0.21940874  0.38173564  0.48935537     0.40700
H1184       H  0.22376230  0.47117178  0.27687150     0.30800
H1185       H  0.27429537  0.51736733  0.35198642     0.38400
H1186       H  0.34486569  0.33774525  0.40119316     0.30300
H1187       H  0.24928914  0.39946923  0.24988222     0.30300
H1188       H  0.37355366  0.43820940  0.24440220     0.30600
Zr1189     Zr  0.03313328  0.48092417  0.95667833     2.17500
O1190       O  0.07111723  0.48344797  0.00845958    -0.51800
O1191       O  0.02804517  0.43107184  0.96208831    -0.75000
O1192       O  0.01721144  0.47638606  0.03340982    -0.81800
O1193       O  0.08210764  0.47991533  0.85894528    -0.83500
O1194       O  0.97658978  0.49906527  0.03756991    -0.79100
O1195       O  0.07760373  0.46516588  0.93090880    -0.90800
O1196       O  0.99981322  0.41844913  0.90685538    -0.76700
O1197       O  0.98521096  0.47314300  0.94967051    -0.86200
O1198       O  0.02630742  0.46803032  0.88180109    -0.85900
O1199       O  0.01227984  0.52462601  0.97341939    -0.72700
O1200       O  0.05071816  0.51864312  0.91096308    -0.84800
Zr1201     Zr  0.97325388  0.54249519  0.84493144     2.26400
Zr1202     Zr  0.96390185  0.51682448  0.96418452     2.06300
Zr1203     Zr  0.04191206  0.50649940  0.83631706     2.10000
Zr1204     Zr  0.97872274  0.46035469  0.87502184     1.78800
O1205       O  0.07866578  0.53948976  0.82010150    -0.93600
O1206       O  0.94083810  0.43547816  0.91117446    -0.41400
O1207       O  0.99377753  0.49862854  0.82805077    -0.78000
O1208       O  0.95593572  0.50333122  0.88911087    -0.96700
O1209       O  0.98135858  0.55413484  0.91932328    -0.90000
O1210       O  0.02126191  0.55064467  0.85043392    -0.92900
C1211       C  0.01656503  0.41277433  0.93851095     1.00900
C1212       C  0.09092505  0.46709952  0.89405518     1.13800
C1213       C  0.99642355  0.48519664  0.05523739     1.04600
O1214       O  0.92658596  0.48825102  0.99408669    -0.95000
O1215       O  0.92136870  0.53983736  0.93938559    -0.90800
O1216       O  0.92585802  0.54761819  0.86524982    -0.83900
C1217       C  0.91192787  0.54794595  0.90129867     1.11200
O1218       O  0.07188645  0.56680776  0.96547759    -0.97000
Zr1219     Zr  0.02895548  0.56185945  0.92575419     1.88900
O1220       O  0.96878066  0.59203918  0.86178500    -0.73600
O1221       O  0.95416692  0.55441769  0.01441204    -0.52900
O1222       O  0.02918189  0.58850723  0.99307071    -0.97600
O1223       O  0.05757914  0.59243610  0.87907188    -0.54800
O1224       O  0.99777508  0.60042435  0.91792361    -0.74200
C1225       C  0.97746726  0.60715526  0.89327031     0.98200
O1226       O  0.94451373  0.55575092  0.78181234    -0.63000
O1227       O  0.05751847  0.47793242  0.77574521    -0.57800
O1228       O  0.98729811  0.54345002  0.76665419    -0.94500
O1229       O  0.02755333  0.52014093  0.76219406    -0.92900
O1230       O  0.99145341  0.43620674  0.80811680    -0.93300
O1231       O  0.94012261  0.44984121  0.82770635    -0.92000
C1232       C  0.00738642  0.53335098  0.74449108     1.17000
H1233       H  0.03642339  0.45148125  0.87463310     0.33000
H1234       H  0.93673754  0.49990752  0.88429975     0.43800
H1235       H  0.02710381  0.56501604  0.82941880     0.37300
H1236       H  0.01624500  0.52934156  0.00363906     0.33800
H1237       H  0.94907630  0.42510758  0.93664821     0.25600
H1238       H  0.97084279  0.55601176  0.03262516     0.31500
H1239       H  0.01172331  0.58368641  0.00820289     0.37500
H1240       H  0.00230292  0.41991914  0.81857950     0.31900
H1241       H  0.07645195  0.48425273  0.76926901     0.30800
H1242       H  0.07570990  0.54568834  0.78887787     0.32500
H1243       H  0.07612904  0.58418988  0.88065425     0.31400
H1244       H  0.94023704  0.46487703  0.80449037     0.35400
H1245       H  0.92931003  0.54213855  0.78183395     0.28200
H1246       H  0.07112366  0.46528444  0.02492039     0.32400
H1247       H  0.08294708  0.55036504  0.95778846     0.35300
H1248       H  0.05950109  0.45888789  0.78879393     0.27900
H1249       H  0.93592752  0.57366880  0.78944796     0.40700
H1250       H  0.91208229  0.50160835  0.00210120     0.30800
H1251       H  0.92971119  0.45016765  0.92487661     0.38400
H1252       H  0.05896281  0.60981938  0.89569337     0.30300
H1253       H  0.95411530  0.57155811  0.99530451     0.30300
H1254       H  0.06557431  0.49720298  0.03057277     0.30600
Zr1255     Zr  0.97035533  0.52717467  0.45573048     2.17500
O1256       O  0.93273817  0.52155892  0.50867485    -0.51800
O1257       O  0.97464143  0.57713335  0.45718857    -0.75000
O1258       O  0.98655868  0.53248515  0.53131189    -0.81800
O1259       O  0.92028195  0.52467658  0.36034782    -0.83500
O1260       O  0.03023491  0.51648796  0.53524692    -0.79100
O1261       O  0.92513127  0.54124534  0.42971723    -0.90800
O1262       O  0.00310418  0.59071281  0.40070433    -0.76700
O1263       O  0.01745412  0.53842310  0.44442631    -0.86200
O1264       O  0.97549477  0.53931279  0.37886753    -0.85900
O1265       O  0.99470874  0.48560587  0.47721796    -0.72700
O1266       O  0.95459370  0.48757983  0.41652452    -0.84800
Zr1267     Zr  0.03186869  0.46889345  0.34748305     2.26400
Zr1268     Zr  0.04197519  0.49691492  0.46385440     2.06300
Zr1269     Zr  0.96110099  0.49947319  0.33970845     2.10000
Zr1270     Zr  0.02243072  0.54991854  0.36759544     1.78800
O1271       O  0.92770790  0.46303361  0.32699984    -0.93600
O1272       O  0.06233564  0.57518416  0.39291947    -0.41400
O1273       O  0.00804824  0.51068034  0.32697274    -0.78000
O1274       O  0.04788682  0.50878880  0.38634224    -0.96700
O1275       O  0.02689776  0.45783357  0.42450779    -0.90000
O1276       O  0.98482284  0.45717063  0.35835030    -0.92900
C1277       C  0.98658389  0.59571235  0.43264717     1.00900
C1278       C  0.91164668  0.53814916  0.39369579     1.13800
C1279       C  0.00880185  0.52734577  0.55264541     1.04600
O1280       O  0.07968427  0.52848293  0.47768340    -0.95000
O1281       O  0.08395455  0.47353602  0.44157850    -0.90800
O1282       O  0.07844332  0.46095280  0.37034225    -0.83900
C1283       C  0.09270943  0.46281987  0.40560398     1.11200
O1284       O  0.94307338  0.44167515  0.48981902    -0.97000
Zr1285     Zr  0.98021493  0.44661155  0.43587941     1.88900
O1286       O  0.03503207  0.41879768  0.36013361    -0.73600
O1287       O  0.05464530  0.46336151  0.52244928    -0.52900
O1288       O  0.98405027  0.41676529  0.50233546    -0.97600
O1289       O  0.95014689  0.41504052  0.39744318    -0.54800
O1290       O  0.01471948  0.41138008  0.42694319    -0.74200
C1291       C  0.03158713  0.40464181  0.39649604     0.98200
O1292       O  0.06300160  0.46733404  0.28417796    -0.63000
O1293       O  0.94292539  0.52619763  0.27647814    -0.57800
O1294       O  0.01733622  0.46636617  0.27013382    -0.94500
O1295       O  0.97672608  0.48896910  0.26599116    -0.92900
O1296       O  0.00470314  0.57868023  0.30630544    -0.93300
O1297       O  0.05554813  0.55716479  0.30766303    -0.92000
C1298       C  0.99705914  0.47665257  0.24807220     1.17000
H1299       H  0.96458355  0.55537784  0.37047144     0.33000
H1300       H  0.06690957  0.51236515  0.37954710     0.43800
H1301       H  0.97955011  0.44200641  0.33997506     0.37300
H1302       H  0.99165335  0.48101936  0.50828294     0.33800
H1303       H  0.05797530  0.57978378  0.42394714     0.25600
H1304       H  0.06652919  0.47382498  0.54253249     0.31500
H1305       H  0.00160761  0.42216207  0.51582988     0.37500
H1306       H  0.01469417  0.59653659  0.30795704     0.31900
H1307       H  0.92368431  0.52010128  0.27363096     0.30800
H1308       H  0.93133990  0.45734531  0.29623992     0.32500
H1309       H  0.93182874  0.41790615  0.41071378     0.31400
H1310       H  0.04972800  0.54432834  0.28445330     0.35400
H1311       H  0.07552505  0.48332589  0.28737764     0.28200
H1312       H  0.93318553  0.53835099  0.52686652     0.32400
H1313       H  0.93090781  0.45778984  0.48363486     0.35300
H1314       H  0.94187739  0.54564887  0.28623158     0.27900
H1315       H  0.07451402  0.45056304  0.28896586     0.40700
H1316       H  0.08663094  0.52247777  0.50724197     0.30800
H1317       H  0.07706244  0.56109331  0.39552810     0.38400
H1318       H  0.95571700  0.39624680  0.40837706     0.30300
H1319       H  0.03760565  0.45994248  0.53966566     0.30300
H1320       H  0.93835248  0.50606362  0.52905638     0.30600
C1321       C  0.00904989  0.53291132  0.60108718    -0.05900
C1322       C  0.98406541  0.53585821  0.62396749    -0.33300
C1323       C  0.98312363  0.53740807  0.67036166     0.35900
C1324       C  0.00750340  0.53610948  0.69511597    -0.06300
C1325       C  0.03256863  0.53466543  0.67207806    -0.33200
C1326       C  0.03352362  0.53311712  0.62576010     0.35800
H1327       H  0.96490159  0.53559886  0.60612754     0.16200
O1328       O  0.95813226  0.53770372  0.69123349    -0.60700
H1329       H  0.05165281  0.53397347  0.69018997     0.16200
O1330       O  0.05852850  0.53086004  0.60531018    -0.60800
H1331       H  0.06454070  0.55029153  0.59900317     0.43200
H1332       H  0.95058523  0.55657274  0.68494157     0.43200
C1333       C  0.99575988  0.48008373  0.10430788    -0.05900
C1334       C  0.01964064  0.47151387  0.12680912    -0.33300
C1335       C  0.02041691  0.46939029  0.17339074     0.35900
C1336       C  0.99683994  0.47542200  0.19864518    -0.06300
C1337       C  0.97270492  0.48281889  0.17591733    -0.33200
C1338       C  0.97207871  0.48553949  0.12966164     0.35800
H1339       H  0.03825572  0.46751896  0.10840198     0.16200
O1340       O  0.04483418  0.46336296  0.19368854    -0.60700
H1341       H  0.95414709  0.48743862  0.19408204     0.16200
O1342       O  0.94809723  0.49380169  0.10981093    -0.60800
H1343       H  0.94766667  0.51435811  0.11199792     0.43200
H1344       H  0.04844617  0.44347671  0.18799742     0.43200
C1345       C  0.17556054  0.43276523  0.39469995    -0.05900
C1346       C  0.16622038  0.44331874  0.43498960    -0.33300
C1347       C  0.13936189  0.45303119  0.43949365     0.35900
C1348       C  0.12113881  0.45191728  0.40343082    -0.06300
C1349       C  0.13040194  0.44024110  0.36373213    -0.33200
C1350       C  0.15718600  0.43072876  0.35924112     0.35800
H1351       H  0.18010079  0.44510297  0.46264122     0.16200
O1352       O  0.13136431  0.46369409  0.47918432    -0.60700
H1353       H  0.11697288  0.43866186  0.33549769     0.16200
O1354       O  0.16522704  0.41979906  0.31972954    -0.60800
H1355       H  0.16480693  0.39931649  0.32488565     0.43200
H1356       H  0.13629563  0.48371316  0.47701756     0.43200
C1357       C  0.11872907  0.45457280  0.89213841    -0.05900
C1358       C  0.13322054  0.44903391  0.93151337    -0.33300
C1359       C  0.16068513  0.44071171  0.93045122     0.35900
C1360       C  0.17447879  0.43810606  0.88930502    -0.06300
C1361       C  0.15935668  0.44182823  0.85010525    -0.33200
C1362       C  0.13180285  0.44958384  0.85125401     0.35800
H1363       H  0.12358733  0.45213229  0.96343509     0.16200
O1364       O  0.17399356  0.43650761  0.96998793    -0.60700
H1365       H  0.16899554  0.43919125  0.81807452     0.16200
O1366       O  0.11805656  0.45262931  0.81191108    -0.60800
H1367       H  0.10797725  0.43489921  0.80876098     0.43200
H1368       H  0.17090193  0.41661811  0.97826211     0.43200
C1369       C  0.30245228  0.42867775  0.67477581    -0.05900
C1370       C  0.32718993  0.42103370  0.65435646    -0.33300
C1371       C  0.32819813  0.41413065  0.60954541     0.35900
C1372       C  0.30409369  0.41448661  0.58385204    -0.06300
C1373       C  0.27929922  0.42155363  0.60448583    -0.33200
C1374       C  0.27829636  0.42856633  0.64919946     0.35800
H1375       H  0.34598070  0.42014271  0.67320021     0.16200
O1376       O  0.35287129  0.40664154  0.59156661    -0.60700
H1377       H  0.26048239  0.42231486  0.58568707     0.16200
O1378       O  0.25356936  0.43597605  0.66705756    -0.60800
H1379       H  0.24388553  0.41817194  0.67355393     0.43200
H1380       H  0.36217390  0.42445765  0.58352677     0.43200
C1381       C  0.30143898  0.43448658  0.08568946    -0.05900
C1382       C  0.27645364  0.44083723  0.10634159    -0.33300
C1383       C  0.27526310  0.44676612  0.15142957     0.35900
C1384       C  0.29942059  0.44665318  0.17686550    -0.06300
C1385       C  0.32452766  0.44158760  0.15558887    -0.33200
C1386       C  0.32569499  0.43530991  0.11083027     0.35800
H1387       H  0.25760077  0.44106469  0.08766180     0.16200
O1388       O  0.25033814  0.45257635  0.17012258    -0.60700
H1389       H  0.34348173  0.44129099  0.17400769     0.16200
O1390       O  0.35074540  0.42960173  0.09243001    -0.60800
H1391       H  0.35347599  0.40931149  0.09767605     0.43200
H1392       H  0.24150776  0.43421425  0.17572275     0.43200
C1393       C  0.07827617  0.33054367  0.42359842    -0.05900
C1394       C  0.06948108  0.34714975  0.45835203    -0.33300
C1395       C  0.05483318  0.37150225  0.44979792     0.35900
C1396       C  0.04889530  0.38002928  0.40563875    -0.06300
C1397       C  0.06027406  0.36523829  0.37073693    -0.33200
C1398       C  0.07492270  0.34065752  0.37934153     0.35800
H1399       H  0.07243728  0.34049077  0.49265158     0.16200
O1400       O  0.04566813  0.38626486  0.48516777    -0.60700
H1401       H  0.05683145  0.37204784  0.33663319     0.16200
O1402       O  0.08423616  0.32593658  0.34409119    -0.60800
H1403       H  0.10254603  0.33379887  0.33693461     0.43200
H1404       H  0.06002665  0.40037962  0.49016577     0.43200
C1405       C  0.19281512  0.27028711  0.41899402    -0.05900
C1406       C  0.20091819  0.27997882  0.37652824    -0.33300
C1407       C  0.22113422  0.30054387  0.37117675     0.35900
C1408       C  0.23335543  0.31213587  0.40872247    -0.06300
C1409       C  0.22551432  0.30217604  0.45108121    -0.33200
C1410       C  0.20572319  0.28131070  0.45644623     0.35800
H1411       H  0.19127753  0.27189024  0.34734692     0.16200
O1412       O  0.22805666  0.30984979  0.32912227    -0.60700
H1413       H  0.23451857  0.31087877  0.48032980     0.16200
O1414       O  0.19792272  0.27319245  0.49866683    -0.60800
H1415       H  0.21150099  0.25892649  0.50827357     0.43200
H1416       H  0.21369899  0.32355832  0.32055422     0.43200
C1417       C  0.02466099  0.38343331  0.94717571    -0.05900
C1418       C  0.03652349  0.37558030  0.98817325    -0.33300
C1419       C  0.04783144  0.34904022  0.99518791     0.35900
C1420       C  0.04786266  0.33007492  0.96064229    -0.06300
C1421       C  0.03538399  0.33760838  0.92020919    -0.33200
C1422       C  0.02363148  0.36383028  0.91340156     0.35800
H1423       H  0.03760278  0.39027062  0.01464016     0.16200
O1424       O  0.06021476  0.34249625  0.03485936    -0.60700
H1425       H  0.03475660  0.32305465  0.89348478     0.16200
O1426       O  0.01280423  0.37056013  0.87258987    -0.60800
H1427       H  0.99420095  0.36232640  0.87305950     0.43200
H1428       H  0.04518949  0.33619190  0.05499467     0.43200
C1429       C  0.18007341  0.28877517  0.93321815    -0.05900
C1430       C  0.18970437  0.30175813  0.97122419    -0.33300
C1431       C  0.21096228  0.32133906  0.96831357     0.35900
C1432       C  0.22357156  0.32759103  0.92705734    -0.06300
C1433       C  0.21405586  0.31428814  0.88914365    -0.33200
C1434       C  0.19227797  0.29534478  0.89191146     0.35800
H1435       H  0.18051715  0.29686587  0.00332106     0.16200
O1436       O  0.21995926  0.33337943  0.00621457    -0.60700
H1437       H  0.22324787  0.31891125  0.85696969     0.16200
O1438       O  0.18393278  0.28238876  0.85442943    -0.60800
H1439       H  0.17145538  0.29581894  0.83920265     0.43200
H1440       H  0.20620927  0.34788926  0.01280305     0.43200
C1441       C  0.07940181  0.21619288  0.75837513    -0.05900
C1442       C  0.08725101  0.23954517  0.73228560    -0.33300
C1443       C  0.08300799  0.24046683  0.68620392     0.35900
C1444       C  0.07032951  0.21784258  0.66534829    -0.06300
C1445       C  0.06141623  0.19511334  0.69199073    -0.33200
C1446       C  0.06590659  0.19407867  0.73777240     0.35800
H1447       H  0.09762941  0.25674323  0.74737387     0.16200
O1448       O  0.09292144  0.26282717  0.66174049    -0.60700
H1449       H  0.05133924  0.17761891  0.67722873     0.16200
O1450       O  0.05641543  0.17150482  0.76223681    -0.60800
H1451       H  0.06910834  0.15605887  0.75552516     0.43200
H1452       H  0.07911029  0.27774778  0.66512660     0.43200
C1453       C  0.06544327  0.19265232  0.16728971    -0.05900
C1454       C  0.06666342  0.21754877  0.19039908    -0.33300
C1455       C  0.07334000  0.21775502  0.23523500     0.35900
C1456       C  0.07949088  0.19267744  0.25884526    -0.06300
C1457       C  0.07692069  0.16749325  0.23655440    -0.33200
C1458       C  0.06998373  0.16730145  0.19128969     0.35800
H1459       H  0.06301940  0.23741877  0.17350383     0.16200
O1460       O  0.07376030  0.24292318  0.25534340    -0.60700
H1461       H  0.08059718  0.14781605  0.25402654     0.16200
O1462       O  0.06758193  0.14223574  0.17114675    -0.60800
H1463       H  0.08660806  0.13563442  0.16680165     0.43200
H1464       H  0.05537221  0.24484494  0.26899200     0.43200
C1465       C  0.82942081  0.56916796  0.38181870    -0.05900
C1466       C  0.84725373  0.57052062  0.34516185    -0.33300
C1467       C  0.87435102  0.56146667  0.34904330     0.35900
C1468       C  0.88407412  0.55057894  0.39002552    -0.06300
C1469       C  0.86659397  0.55006962  0.42701106    -0.33200
C1470       C  0.83940781  0.55889411  0.42309436     0.35800
H1471       H  0.84013194  0.57847284  0.31324373     0.16200
O1472       O  0.89109423  0.56322282  0.31241246    -0.60700
H1473       H  0.87364320  0.54157658  0.45864054     0.16200
O1474       O  0.82250100  0.55612203  0.45941944    -0.60800
H1475       H  0.81439088  0.53727356  0.45764790     0.43200
H1476       H  0.90223429  0.58021840  0.31621439     0.43200
C1477       C  0.82841836  0.57610678  0.88365706    -0.05900
C1478       C  0.83775745  0.56811832  0.92629983    -0.33300
C1479       C  0.86476159  0.55902537  0.93311535     0.35900
C1480       C  0.88318647  0.55813864  0.89698055    -0.06300
C1481       C  0.87386250  0.56708305  0.85468310    -0.33200
C1482       C  0.84686679  0.57556521  0.84776814     0.35800
H1483       H  0.82384351  0.56811599  0.95440133     0.16200
O1484       O  0.87249227  0.55024305  0.97489205    -0.60700
H1485       H  0.88739648  0.56717983  0.82613720     0.16200
O1486       O  0.83894211  0.58385480  0.80580636    -0.60800
H1487       H  0.83674258  0.56640679  0.78945649     0.43200
H1488       H  0.87817280  0.56736561  0.98987903     0.43200
C1489       C  0.70285081  0.57322560  0.66614561    -0.05900
C1490       C  0.67889925  0.58328734  0.64553737    -0.33300
C1491       C  0.67793700  0.58885608  0.59983031     0.35900
C1492       C  0.70122704  0.58428246  0.57319117    -0.06300
C1493       C  0.72483908  0.57299158  0.59343161    -0.33200
C1494       C  0.72584257  0.56763538  0.63939335     0.35800
H1495       H  0.66096571  0.58810986  0.66509355     0.16200
O1496       O  0.65452953  0.60026747  0.58213235    -0.60700
H1497       H  0.74282260  0.56855768  0.57371061     0.16200
O1498       O  0.74934218  0.55680905  0.65765321    -0.60800
H1499       H  0.76190759  0.57288338  0.66007869     0.43200
H1500       H  0.64160078  0.58448297  0.57974921     0.43200
C1501       C  0.70172688  0.59227042  0.07195347    -0.05900
C1502       C  0.72717696  0.58863919  0.09305595    -0.33300
C1503       C  0.72893795  0.58048947  0.13798766     0.35900
C1504       C  0.70491545  0.57606829  0.16356957    -0.06300
C1505       C  0.67951343  0.57838086  0.14197789    -0.33200
C1506       C  0.67774848  0.58646891  0.09700241     0.35800
H1507       H  0.74604121  0.59225224  0.07476957     0.16200
O1508       O  0.75437264  0.57786111  0.15661810    -0.60700
H1509       H  0.66065375  0.57477163  0.16026695     0.16200
O1510       O  0.65235686  0.58842565  0.07805381    -0.60800
H1511       H  0.64559455  0.60725802  0.08511019     0.43200
H1512       H  0.75881419  0.55774587  0.15550498     0.43200
C1513       C  0.95969906  0.67888901  0.45372246    -0.05900
C1514       C  0.96533353  0.67002005  0.41072268    -0.33300
C1515       C  0.97521936  0.64336440  0.40375978     0.35900
C1516       C  0.97952197  0.62487140  0.44012997    -0.06300
C1517       C  0.97449697  0.63377601  0.48332072    -0.33200
C1518       C  0.96482436  0.66070823  0.49035542     0.35800
H1519       H  0.96204531  0.68381059  0.38213103     0.16200
O1520       O  0.97967016  0.63530091  0.36106571    -0.60700
H1521       H  0.97777480  0.61971658  0.51159811     0.16200
O1522       O  0.96005713  0.66882743  0.53292780    -0.60800
H1523       H  0.94181230  0.66115093  0.54104009     0.43200
H1524       H  0.96197977  0.62749826  0.35137771     0.43200
C1525       C  0.77996852  0.69005960  0.40979531    -0.05900
C1526       C  0.78469835  0.69940922  0.45267028    -0.33300
C1527       C  0.80590022  0.71816256  0.46068593     0.35900
C1528       C  0.82317667  0.72746568  0.42559717    -0.06300
C1529       C  0.81817732  0.71836012  0.38260051    -0.33200
C1530       C  0.79671344  0.69997787  0.37449846     0.35800
H1531       H  0.77215434  0.69183631  0.48022707     0.16200
O1532       O  0.81074909  0.72568835  0.50343713    -0.60700
H1533       H  0.83120655  0.72521777  0.35519369     0.16200
O1534       O  0.79358532  0.69024996  0.33254224    -0.60800
H1535       H  0.78126040  0.70379859  0.31725606     0.43200
H1536       H  0.79630421  0.73944012  0.51025154     0.43200
C1537       C  0.93148073  0.68003977  0.92891473    -0.05900
C1538       C  0.95005034  0.66762863  0.95863630    -0.33300
C1539       C  0.96521419  0.64435744  0.94717726     0.35900
C1540       C  0.96191010  0.63250646  0.90508390    -0.06300
C1541       C  0.94197044  0.64380393  0.87635867    -0.33200
C1542       C  0.92683146  0.66733530  0.88791224     0.35800
H1543       H  0.95405160  0.67680490  0.99031790     0.16200
O1544       O  0.98289859  0.63318475  0.97808677    -0.60700
H1545       H  0.93832939  0.63463908  0.84456123     0.16200
O1546       O  0.90820324  0.67815752  0.85820685    -0.60800
H1547       H  0.89001125  0.67316375  0.87082679     0.43200
H1548       H  0.99984772  0.64443301  0.97492987     0.43200
C1549       C  0.81427267  0.74411898  0.90603311    -0.05900
C1550       C  0.80248544  0.73116377  0.94396032    -0.33300
C1551       C  0.78332480  0.70977053  0.94029989     0.35900
C1552       C  0.77443915  0.70190200  0.89817458    -0.06300
C1553       C  0.78533921  0.71568186  0.86018250    -0.33200
C1554       C  0.80554777  0.73617330  0.86383404     0.35800
H1555       H  0.80916096  0.73665178  0.97675721     0.16200
O1556       O  0.77341934  0.69671718  0.97817712    -0.60700
H1557       H  0.77902974  0.70973635  0.82741717     0.16200
O1558       O  0.81648485  0.74838778  0.82602602    -0.60800
H1559       H  0.83059403  0.73515161  0.81583183     0.43200
H1560       H  0.78743183  0.68258454  0.98653010     0.43200
C1561       C  0.93924867  0.81134437  0.74913568    -0.05900
C1562       C  0.94584634  0.83605268  0.72515878    -0.33300
C1563       C  0.95351056  0.83569853  0.68011830     0.35900
C1564       C  0.95450404  0.81028751  0.65772836    -0.06300
C1565       C  0.95012553  0.78548419  0.68268784    -0.33200
C1566       C  0.94280905  0.78578736  0.72765442     0.35800
H1567       H  0.94457477  0.85593577  0.74101121     0.16200
O1568       O  0.96013552  0.86032239  0.65844106    -0.60700
H1569       H  0.95115000  0.76555364  0.66693347     0.16200
O1570       O  0.93847639  0.76078664  0.74969134    -0.60800
H1571       H  0.95685282  0.75443660  0.75944141     0.43200
H1572       H  0.94290461  0.87120717  0.65699199     0.43200
C1573       C  0.91542502  0.79840643  0.25297550    -0.05900
C1574       C  0.92882207  0.82061662  0.23071637    -0.33300
C1575       C  0.93490939  0.81986675  0.18530696     0.35900
C1576       C  0.92706449  0.79679473  0.16025634    -0.06300
C1577       C  0.91405843  0.77424949  0.18278264    -0.33200
C1578       C  0.90823330  0.77492876  0.22852939     0.35800
H1579       H  0.93528491  0.83855503  0.24886793     0.16200
O1580       O  0.94855573  0.84202785  0.16593012    -0.60700
H1581       H  0.90772067  0.75622167  0.16476151     0.16200
O1582       O  0.89512473  0.75268705  0.24879136    -0.60800
H1583       H  0.87539962  0.75577837  0.24291498     0.43200
H1584       H  0.96824301  0.83769711  0.16986213     0.43200
C1585       C  0.13471092  0.03098300  0.52392348    -0.05900
C1586       C  0.14351560  0.05495325  0.54481220    -0.33300
C1587       C  0.12945167  0.08010500  0.53830367     0.35900
C1588       C  0.10691153  0.08149343  0.50936561    -0.06300
C1589       C  0.09707277  0.05711354  0.49090993    -0.33200
C1590       C  0.11051349  0.03178313  0.49881646     0.35800
H1591       H  0.16239478  0.05462750  0.56349943     0.16200
O1592       O  0.13910861  0.10363269  0.55752784    -0.60700
H1593       H  0.07965485  0.05795786  0.46884343     0.16200
O1594       O  0.10182630  0.00866872  0.47734846    -0.60800
H1595       H  0.09075354  0.99795776  0.49961374     0.43200
H1596       H  0.15600837  0.10866778  0.54078529     0.43200
C1597       C  0.02922079  0.88597763  0.46473270    -0.05900
C1598       C  0.04022703  0.89486923  0.42365040    -0.33300
C1599       C  0.06556295  0.90793945  0.42086086     0.35900
C1600       C  0.08016973  0.91329027  0.45995982    -0.06300
C1601       C  0.06799397  0.90637380  0.50137883    -0.33200
C1602       C  0.04275245  0.89265125  0.50392493     0.35800
H1603       H  0.02987381  0.89010558  0.39310472     0.16200
O1604       O  0.07635959  0.91385637  0.37952177    -0.60700
H1605       H  0.07868924  0.91015521  0.53195716     0.16200
O1606       O  0.03291565  0.88350759  0.54448974    -0.60800
H1607       H  0.02250705  0.89946056  0.55608110     0.43200
H1608       H  0.08489758  0.89622949  0.37014899     0.43200
C1609       C  0.13458574  0.02638263  0.96676429    -0.05900
C1610       C  0.12665741  0.03816486  0.92562703    -0.33300
C1611       C  0.11447255  0.06437841  0.92259376     0.35900
C1612       C  0.10960826  0.07933011  0.96141978    -0.06300
C1613       C  0.11571989  0.06654227  0.00291158    -0.33200
C1614       C  0.12825222  0.04031144  0.00574300     0.35800
H1615       H  0.13092095  0.02739423  0.89528123     0.16200
O1616       O  0.10759007  0.07512744  0.88144815    -0.60700
H1617       H  0.11203218  0.07743098  0.03327964     0.16200
O1618       O  0.13556807  0.02928969  0.04645581    -0.60800
H1619       H  0.15414208  0.03668011  0.05194276     0.43200
H1620       H  0.12499807  0.08197602  0.86802695     0.43200
C1621       C  0.20694489  0.92180284  0.66027482    -0.05900
C1622       C  0.18179849  0.92004978  0.68317654    -0.33300
C1623       C  0.18057485  0.91260889  0.72843609     0.35900
C1624       C  0.20480194  0.90637543  0.75206918    -0.06300
C1625       C  0.22991477  0.90807888  0.72917024    -0.33200
C1626       C  0.23119853  0.91599667  0.68417693     0.35800
H1627       H  0.16279529  0.92440864  0.66602568     0.16200
O1628       O  0.15551035  0.91182505  0.74911018    -0.60700
H1629       H  0.24891879  0.90370691  0.74632597     0.16200
O1630       O  0.25640877  0.91775805  0.66408368    -0.60800
H1631       H  0.26296035  0.93686906  0.66955542     0.43200
H1632       H  0.15209326  0.93117925  0.75824141     0.43200
C1633       C  0.20681884  0.95129746  0.15086912    -0.05900
C1634       C  0.18219160  0.94386399  0.17251478    -0.33300
C1635       C  0.18063913  0.94082827  0.21864011     0.35900
C1636       C  0.20393639  0.94564649  0.24469397    -0.06300
C1637       C  0.22824644  0.95444569  0.22330068    -0.33200
C1638       C  0.22980800  0.95735821  0.17693205     0.35800
H1639       H  0.16414538  0.93896666  0.15367006     0.16200
O1640       O  0.15643121  0.93203953  0.23757613    -0.60700
H1641       H  0.24630632  0.95879032  0.24253287     0.16200
O1642       O  0.25410815  0.96544629  0.15759614    -0.60800
H1643       H  0.25342177  0.98607879  0.15602219     0.43200
H1644       H  0.15671002  0.91145574  0.23596779     0.43200
C1645       C  0.08778614  0.88357376  0.98996686    -0.05900
C1646       C  0.08626503  0.85472081  0.99717456    -0.33300
C1647       C  0.06120649  0.84183656  0.00668602     0.35900
C1648       C  0.03700136  0.85779797  0.00787776    -0.06300
C1649       C  0.03888831  0.88697602  0.00478400    -0.33200
C1650       C  0.06423686  0.89994148  0.99636761     0.35800
H1651       H  0.10450872  0.84203915  0.99443328     0.16200
O1652       O  0.06029642  0.81344664  0.01334532    -0.60700
H1653       H  0.02050753  0.89957855  0.00535065     0.16200
O1654       O  0.06533817  0.92834046  0.99061940    -0.60800
H1655       H  0.07083254  0.93531851  0.01985574     0.43200
H1656       H  0.06390433  0.80553997  0.98388342     0.43200
C1657       C  0.52571805  0.63475245  0.34038884    -0.05900
C1658       C  0.54184357  0.63172162  0.30234349    -0.33300
C1659       C  0.56851806  0.62103290  0.30587438     0.35900
C1660       C  0.57919347  0.61309876  0.34806214    -0.06300
C1661       C  0.56195718  0.61395698  0.38525344    -0.33200
C1662       C  0.53557827  0.62473435  0.38173674     0.35800
H1663       H  0.53461004  0.63958181  0.27043909     0.16200
O1664       O  0.58427082  0.61974600  0.26821168    -0.60700
H1665       H  0.56922316  0.60717267  0.41770900     0.16200
O1666       O  0.51977746  0.62643333  0.41936461    -0.60800
H1667       H  0.52776005  0.64181143  0.43627443     0.43200
H1668       H  0.59208023  0.63866427  0.26363274     0.43200
C1669       C  0.32163490  0.79649187  0.37432042    -0.05900
C1670       C  0.29444266  0.78722262  0.37697315    -0.33300
C1671       C  0.27298535  0.80618079  0.38244697     0.35900
C1672       C  0.27857639  0.83493754  0.38326970    -0.06300
C1673       C  0.30575378  0.84413572  0.37889848    -0.33200
C1674       C  0.32721971  0.82516501  0.37533173     0.35800
H1675       H  0.28991316  0.76517612  0.37600659     0.16200
O1676       O  0.24667144  0.79646381  0.38628375    -0.60700
H1677       H  0.31052712  0.86610811  0.38008850     0.16200
O1678       O  0.35354819  0.83489659  0.37169928    -0.60800
H1679       H  0.35955334  0.83762669  0.40262096     0.43200
H1680       H  0.24476110  0.78975004  0.41758539     0.43200
C1681       C  0.38371530  0.59401194  0.34229702    -0.05900
C1682       C  0.39817350  0.57122303  0.32576024    -0.33300
C1683       C  0.38613616  0.54465871  0.32580252     0.35900
C1684       C  0.35925778  0.54093791  0.34216600    -0.06300
C1685       C  0.34441043  0.56432915  0.35557097    -0.33200
C1686       C  0.35642276  0.59051921  0.35610157     0.35800
H1687       H  0.41917219  0.57377687  0.31467807     0.16200
O1688       O  0.40138130  0.52238524  0.31268595    -0.60700
H1689       H  0.32341795  0.56226210  0.36696857     0.16200
O1690       O  0.34113258  0.61277352  0.36944009    -0.60800
H1691       H  0.33946173  0.61042373  0.40214486     0.43200
H1692       H  0.39868654  0.52169049  0.28017713     0.43200
C1693       C  0.58361903  0.62896463  0.83655593    -0.05900
C1694       C  0.58268495  0.65800243  0.83327497    -0.33300
C1695       C  0.56006664  0.67162718  0.81475770     0.35900
C1696       C  0.53700774  0.65618931  0.80149090    -0.06300
C1697       C  0.53848933  0.62695166  0.80331366    -0.33200
C1698       C  0.56177673  0.61334714  0.82012484     0.35800
H1699       H  0.60001682  0.67018792  0.84373532     0.16200
O1700       O  0.56063098  0.70011551  0.81068095    -0.60700
H1701       H  0.52131927  0.61455159  0.79290486     0.16200
O1702       O  0.56299777  0.58481296  0.82068929    -0.60800
H1703       H  0.55100422  0.57852508  0.84567499     0.43200
H1704       H  0.56914644  0.70428586  0.78129403     0.43200
C1705       C  0.32526871  0.77431777  0.91257063    -0.05900
C1706       C  0.30674368  0.78140500  0.87856669    -0.33300
C1707       C  0.28567963  0.80033385  0.88556980     0.35900
C1708       C  0.28252517  0.81215048  0.92732396    -0.06300
C1709       C  0.29997372  0.80390869  0.96214638    -0.33200
C1710       C  0.32155134  0.78537906  0.95484931     0.35800
H1711       H  0.30912890  0.77301034  0.84582517     0.16200
O1712       O  0.26805285  0.80692781  0.85156743    -0.60700
H1713       H  0.29764743  0.81280624  0.99453075     0.16200
O1714       O  0.33852877  0.77780953  0.98926121    -0.60800
H1715       H  0.34936382  0.79468997  0.99539993     0.43200
H1716       H  0.27757973  0.82143489  0.83316860     0.43200
C1717       C  0.41319999  0.71963152  0.55308442    -0.05900
C1718       C  0.42415306  0.74328131  0.57283264    -0.33300
C1719       C  0.43146992  0.74269514  0.61776193     0.35900
C1720       C  0.42786525  0.71816281  0.64417115    -0.06300
C1721       C  0.41647059  0.69473537  0.62467957    -0.33200
C1722       C  0.40915147  0.69524306  0.57991404     0.35800
H1723       H  0.42767896  0.76222637  0.55322479     0.16200
O1724       O  0.44231873  0.76622618  0.63528710    -0.60700
H1725       H  0.41271840  0.67586399  0.64437801     0.16200
O1726       O  0.39755157  0.67181492  0.56313749    -0.60800
H1727       H  0.41276211  0.65828680  0.56039010     0.43200
H1728       H  0.46239406  0.76433858  0.63153577     0.43200
C1729       C  0.43970489  0.70322713  0.05594744    -0.05900
C1730       C  0.44888022  0.72817355  0.07409041    -0.33300
C1731       C  0.45333357  0.73025928  0.11971752     0.35900
C1732       C  0.44931040  0.70687540  0.14855963    -0.06300
C1733       C  0.44173683  0.68146769  0.12997925    -0.33200
C1734       C  0.43660233  0.67960164  0.08447495     0.35800
H1735       H  0.45208518  0.74654409  0.05297038     0.16200
O1736       O  0.46122922  0.75544497  0.13562887    -0.60700
H1737       H  0.43835623  0.66310527  0.15102743     0.16200
O1738       O  0.42756555  0.65478623  0.06873947    -0.60800
H1739       H  0.40741808  0.65511288  0.07280547     0.43200
H1740       H  0.44441586  0.76701861  0.13555136     0.43200
C1741       C  0.40332539  0.58431165  0.83107758    -0.05900
C1742       C  0.40593333  0.56449099  0.86594726    -0.33300
C1743       C  0.39201332  0.53918118  0.86511532     0.35900
C1744       C  0.37528667  0.53306594  0.82892897    -0.06300
C1745       C  0.37408479  0.55177409  0.79244102    -0.33200
C1746       C  0.38819365  0.57725255  0.79308690     0.35800
H1747       H  0.41790135  0.56906749  0.89495928     0.16200
O1748       O  0.39393532  0.52087571  0.90082536    -0.60700
H1749       H  0.36094349  0.54741363  0.76469593     0.16200
O1750       O  0.38507906  0.59595613  0.75817626    -0.60800
H1751       H  0.39792063  0.58965811  0.73496349     0.43200
H1752       H  0.38021493  0.52731885  0.92259457     0.43200
C1753       C  0.47836839  0.89323212  0.36456185    -0.05900
C1754       C  0.46581433  0.88757317  0.32392306    -0.33300
C1755       C  0.45437222  0.86132450  0.31672988     0.35900
C1756       C  0.45516707  0.84052850  0.35063327    -0.06300
C1757       C  0.46767449  0.84625245  0.39101877    -0.33200
C1758       C  0.47935554  0.87211849  0.39807445     0.35800
H1759       H  0.46450269  0.90363921  0.29799898     0.16200
O1760       O  0.44174849  0.85654343  0.27719592    -0.60700
H1761       H  0.46847884  0.83047662  0.41747983     0.16200
O1762       O  0.49009562  0.87702847  0.43903505    -0.60800
H1763       H  0.50914938  0.86997617  0.43782711     0.43200
H1764       H  0.42218266  0.86099448  0.28225812     0.43200
C1765       C  0.33128768  0.94264795  0.44372532    -0.05900
C1766       C  0.34272165  0.95654817  0.47924859    -0.33300
C1767       C  0.36908144  0.96732890  0.47639526     0.35900
C1768       C  0.38506833  0.96369376  0.43772732    -0.06300
C1769       C  0.37383672  0.94921183  0.40243361    -0.33200
C1770       C  0.34716059  0.93869556  0.40521343     0.35800
H1771       H  0.33073456  0.96031240  0.50881513     0.16200
O1772       O  0.37861139  0.98206901  0.51135819    -0.60700
H1773       H  0.38573344  0.94595551  0.37261733     0.16200
O1774       O  0.33674286  0.92487832  0.36996884    -0.60800
H1775       H  0.34378419  0.90558118  0.37341954     0.43200
H1776       H  0.37258746  0.00152924  0.50531552     0.43200
C1777       C  0.44991898  0.83587483  0.86629966    -0.05900
C1778       C  0.45004534  0.85569184  0.83100294    -0.33300
C1779       C  0.46145658  0.88220322  0.83604775     0.35900
C1780       C  0.47370394  0.88907445  0.87663670    -0.06300
C1781       C  0.47403602  0.86899649  0.91141782    -0.33200
C1782       C  0.46227356  0.84283737  0.90669606     0.35800
H1783       H  0.44112105  0.85071146  0.79941806     0.16200
O1784       O  0.46097870  0.90095495  0.80080754    -0.60700
H1785       H  0.48296417  0.87371027  0.94311389     0.16200
O1786       O  0.46338534  0.82414957  0.94193019    -0.60800
H1787       H  0.48031347  0.81320726  0.93723181     0.43200
H1788       H  0.44235742  0.90916845  0.80115212     0.43200
C1789       C  0.38685530  0.95815246  0.92672691    -0.05900
C1790       C  0.37619710  0.95116513  0.96896821    -0.33300
C1791       C  0.34983816  0.94070917  0.97422109     0.35900
C1792       C  0.33334074  0.93694603  0.93677643    -0.06300
C1793       C  0.34457688  0.94197011  0.89419665    -0.33200
C1794       C  0.37126946  0.95225046  0.88895663     0.35800
H1795       H  0.38817224  0.95420013  0.99853633     0.16200
O1796       O  0.34052744  0.93396524  0.01622945    -0.60700
H1797       H  0.33234582  0.93891557  0.86490083     0.16200
O1798       O  0.38128613  0.95763432  0.84698691    -0.60800
H1799       H  0.38968755  0.93988478  0.83790333     0.43200
H1800       H  0.33626933  0.95199057  0.02988626     0.43200
C1801       C  0.50617129  0.01156810  0.63359810    -0.05900
C1802       C  0.53197600  0.01224244  0.65350936    -0.33300
C1803       C  0.53475025  0.00680692  0.69901819     0.35900
C1804       C  0.51140789  0.00035172  0.72507492    -0.06300
C1805       C  0.48568014  0.99935869  0.70471001    -0.33200
C1806       C  0.48292556  0.00480553  0.65949051     0.35800
H1807       H  0.55010930  0.01668620  0.63372150     0.16200
O1808       O  0.56033974  0.00737974  0.71743387    -0.60700
H1809       H  0.46729012  0.99519680  0.72397871     0.16200
O1810       O  0.45723033  0.00470812  0.64130795    -0.60800
H1811       H  0.45207017  0.98479191  0.63991430     0.43200
H1812       H  0.56568987  0.02729785  0.71689153     0.43200
C1813       C  0.49989055  0.01711209  0.22279209    -0.05900
C1814       C  0.48787091  0.99582462  0.19901219    -0.33300
C1815       C  0.48584832  0.99808120  0.15294620     0.35900
C1816       C  0.49548225  0.02227577  0.12997313    -0.06300
C1817       C  0.50692734  0.04383419  0.15398891    -0.33200
C1818       C  0.50912542  0.04144154  0.20006432     0.35800
H1819       H  0.48060328  0.97704453  0.21609041     0.16200
O1820       O  0.47497983  0.97620954  0.13077848    -0.60700
H1821       H  0.51407964  0.06270882  0.13707560     0.16200
O1822       O  0.51909551  0.06352447  0.22276605    -0.60800
H1823       H  0.53910420  0.06351342  0.21722179     0.43200
H1824       H  0.49045912  0.96320026  0.12639898     0.43200
C1825       C  0.47079931  0.36439164  0.33835127    -0.05900
C1826       C  0.44671557  0.34987422  0.34960345    -0.33300
C1827       C  0.42221912  0.36397944  0.35559938     0.35900
C1828       C  0.42116641  0.39298127  0.34892105    -0.06300
C1829       C  0.44423438  0.40727560  0.33220355    -0.33200
C1830       C  0.46916186  0.39308634  0.32689317     0.35800
H1831       H  0.44722323  0.32764172  0.35684978     0.16200
O1832       O  0.39933482  0.34927193  0.36865422    -0.60700
H1833       H  0.44331296  0.42955535  0.32565537     0.16200
O1834       O  0.49207597  0.40784011  0.31432276    -0.60800
H1835       H  0.49175303  0.40857198  0.28143168     0.43200
H1836       H  0.40158061  0.34543891  0.40094071     0.43200
C1837       C  0.57233931  0.18161686  0.42557640    -0.05900
C1838       C  0.56847720  0.17361859  0.47076159    -0.33300
C1839       C  0.55445606  0.14910953  0.48307495     0.35900
C1840       C  0.54410463  0.13226157  0.45007384    -0.06300
C1841       C  0.54957338  0.13916887  0.40526460    -0.33200
C1842       C  0.56326283  0.16360341  0.39280860     0.35800
H1843       H  0.57501376  0.18704980  0.49683426     0.16200
O1844       O  0.54914314  0.14302372  0.52701839    -0.60700
H1845       H  0.54255134  0.12579007  0.37936640     0.16200
O1846       O  0.56708916  0.16984498  0.34847254    -0.60800
H1847       H  0.54881758  0.17543221  0.33710657     0.43200
H1848       H  0.56646395  0.13525867  0.53908913     0.43200
C1849       C  0.59973771  0.43449787  0.35819265    -0.05900
C1850       C  0.61332585  0.44014955  0.31752980    -0.33300
C1851       C  0.62676249  0.46555826  0.30956797     0.35900
C1852       C  0.62601035  0.48583782  0.34191629    -0.06300
C1853       C  0.61012964  0.48135401  0.38039225    -0.33200
C1854       C  0.59706981  0.45586521  0.38876836     0.35800
H1855       H  0.61539443  0.42410084  0.29328347     0.16200
O1856       O  0.64233903  0.46947976  0.27191220    -0.60700
H1857       H  0.60945852  0.49700040  0.40551913     0.16200
O1858       O  0.58225964  0.45184855  0.42723766    -0.60800
H1859       H  0.59601440  0.44852245  0.45086868     0.43200
H1860       H  0.66023720  0.46069864  0.27889931     0.43200
C1861       C  0.47603740  0.37230473  0.86822816    -0.05900
C1862       C  0.46669353  0.38237283  0.90871808    -0.33300
C1863       C  0.44239237  0.39737031  0.91131977     0.35900
C1864       C  0.42642997  0.40216006  0.87289861    -0.06300
C1865       C  0.43673019  0.39350003  0.83177446    -0.33200
C1866       C  0.46133934  0.37852730  0.82931571     0.35800
H1867       H  0.47817446  0.37817268  0.93886046     0.16200
O1868       O  0.43407278  0.40626954  0.95203470    -0.60700
H1869       H  0.42506179  0.39704572  0.80170224     0.16200
O1870       O  0.47008831  0.36890447  0.78930382    -0.60800
H1871       H  0.45815847  0.35276226  0.78338788     0.43200
H1872       H  0.44032459  0.42586882  0.95310590     0.43200
C1873       C  0.57975211  0.18052803  0.91940274    -0.05900
C1874       C  0.57429503  0.17182547  0.96373487    -0.33300
C1875       C  0.56075110  0.14665548  0.97351900     0.35900
C1876       C  0.55216636  0.13007432  0.93873705    -0.06300
C1877       C  0.55991761  0.13749558  0.89496737    -0.33200
C1878       C  0.57361862  0.16238633  0.88514259     0.35800
H1879       H  0.57898056  0.18528274  0.99082731     0.16200
O1880       O  0.55413626  0.13964200  0.01667606    -0.60700
H1881       H  0.55466901  0.12422734  0.86787281     0.16200
O1882       O  0.58054283  0.16894728  0.84188596    -0.60800
H1883       H  0.56324499  0.17492978  0.82740411     0.43200
H1884       H  0.57050352  0.12989090  0.02871771     0.43200
C1885       C  0.57249796  0.30661247  0.68960623    -0.05900
C1886       C  0.57195148  0.33275374  0.66709171    -0.33300
C1887       C  0.57862958  0.33560816  0.62194180     0.35900
C1888       C  0.58570946  0.31198713  0.59767922    -0.06300
C1889       C  0.58601135  0.28582687  0.62012719    -0.33200
C1890       C  0.57944704  0.28296868  0.66526117     0.35800
H1891       H  0.56698379  0.35140501  0.68471291     0.16200
O1892       O  0.57803511  0.36167055  0.60209835    -0.60700
H1893       H  0.59133443  0.26719676  0.60272866     0.16200
O1894       O  0.58095921  0.25700378  0.68535650    -0.60800
H1895       H  0.56354498  0.24768574  0.67798261     0.43200
H1896       H  0.59656606  0.36944586  0.60660484     0.43200
C1897       C  0.58796692  0.30758669  0.09622041    -0.05900
C1898       C  0.58857490  0.28145753  0.11870786    -0.33300
C1899       C  0.58202550  0.27868264  0.16393079     0.35900
C1900       C  0.57430894  0.30229462  0.18778232    -0.06300
C1901       C  0.57270085  0.32818228  0.16477956    -0.33200
C1902       C  0.57939283  0.33099271  0.11979362     0.35800
H1903       H  0.59450080  0.26295431  0.10142819     0.16200
O1904       O  0.58357280  0.25281374  0.18434138    -0.60700
H1905       H  0.56681744  0.34676805  0.18185870     0.16200
O1906       O  0.57796497  0.35695758  0.09969208    -0.60800
H1907       H  0.55837739  0.35972094  0.09233278     0.43200
H1908       H  0.60331482  0.24968994  0.19009754     0.43200
C1909       C  0.60369119  0.43470278  0.86499773    -0.05900
C1910       C  0.61377163  0.44285932  0.82262647    -0.33300
C1911       C  0.62633220  0.46888486  0.81550191     0.35900
C1912       C  0.62869216  0.48695079  0.85094003    -0.06300
C1913       C  0.61657266  0.47977083  0.89194580    -0.33200
C1914       C  0.60432741  0.45390122  0.89929931     0.35800
H1915       H  0.61355080  0.42840334  0.79577013     0.16200
O1916       O  0.63851726  0.47524015  0.77539211    -0.60700
H1917       H  0.61811635  0.49371313  0.91941369     0.16200
O1918       O  0.59368750  0.44736240  0.94053810    -0.60800
H1919       H  0.60967573  0.44240415  0.95930825     0.43200
H1920       H  0.62365681  0.48301640  0.75649610     0.43200
C1921       C  0.88473591  0.92238322  0.47615806    -0.05900
C1922       C  0.85685904  0.92417803  0.46666157    -0.33300
C1923       C  0.84201179  0.94811933  0.47568335     0.35900
C1924       C  0.85510585  0.97127453  0.49430325    -0.06300
C1925       C  0.88300680  0.96906370  0.50517591    -0.33200
C1926       C  0.89772855  0.94469883  0.49676694     0.35800
H1927       H  0.84639324  0.90679634  0.45220513     0.16200
O1928       O  0.81470535  0.94860314  0.46548325    -0.60700
H1929       H  0.89366320  0.98645131  0.51920609     0.16200
O1930       O  0.92508539  0.94348133  0.50656078    -0.60800
H1931       H  0.92590249  0.93932991  0.53894938     0.43200
H1932       H  0.81396192  0.95276073  0.43307989     0.43200
C1933       C  0.61960310  0.06943357  0.43057381    -0.05900
C1934       C  0.63887259  0.06356715  0.39749980    -0.33300
C1935       C  0.66656287  0.07015737  0.40282832     0.35900
C1936       C  0.67550943  0.08308866  0.44163779    -0.06300
C1937       C  0.65615849  0.09013986  0.47376684    -0.33200
C1938       C  0.62844265  0.08381574  0.46831035     0.35800
H1939       H  0.63275050  0.05258747  0.36833911     0.16200
O1940       O  0.68490266  0.06254000  0.37080203    -0.60700
H1941       H  0.66256669  0.10048377  0.50339258     0.16200
O1942       O  0.61030825  0.09130895  0.50071132    -0.60800
H1943       H  0.60379753  0.11011658  0.49130267     0.43200
H1944       H  0.69236303  0.04435031  0.38146910     0.43200
C1945       C  0.69176751  0.23965697  0.42943969    -0.05900
C1946       C  0.70427659  0.23335818  0.47023280    -0.33300
C1947       C  0.72494172  0.21307773  0.47357188     0.35900
C1948       C  0.73347214  0.19867964  0.43553506    -0.06300
C1949       C  0.72096424  0.20530917  0.39478668    -0.33200
C1950       C  0.70021069  0.22528239  0.39164117     0.35800
H1951       H  0.69786165  0.24401251  0.49968147     0.16200
O1952       O  0.73607073  0.20706935  0.51442144    -0.60700
H1953       H  0.72677904  0.19447037  0.36520550     0.16200
O1954       O  0.68742003  0.22969627  0.35165911    -0.60800
H1955       H  0.67233031  0.21590087  0.35151583     0.43200
H1956       H  0.72314911  0.19379886  0.52921526     0.43200
C1957       C  0.96930331  0.14861443  0.50831304    -0.05900
C1958       C  0.94560960  0.16200609  0.49196979    -0.33300
C1959       C  0.92196943  0.14707544  0.48315425     0.35900
C1960       C  0.92101894  0.11825955  0.49194265    -0.06300
C1961       C  0.94352340  0.10496530  0.51219550    -0.33200
C1962       C  0.96774827  0.11991521  0.52004509     0.35800
H1963       H  0.94569336  0.18410864  0.48367382     0.16200
O1964       O  0.89959863  0.16096056  0.46626074    -0.60700
H1965       H  0.94272711  0.08284088  0.52018647     0.16200
O1966       O  0.99016499  0.10590925  0.53632231    -0.60800
H1967       H  0.98728520  0.10456496  0.56889336     0.43200
H1968       H  0.90323823  0.16330862  0.43397101     0.43200
C1969       C  0.87384623  0.97978546  0.98849417    -0.05900
C1970       C  0.88640291  0.97511994  0.94746748    -0.33300
C1971       C  0.90259308  0.95162524  0.94127964     0.35900
C1972       C  0.90604974  0.93191247  0.97640706    -0.06300
C1973       C  0.89587045  0.93825103  0.01887409    -0.33200
C1974       C  0.87987054  0.96212908  0.02505055     0.35800
H1975       H  0.88282619  0.98935229  0.91947716     0.16200
O1976       O  0.91459570  0.94796445  0.90060514    -0.60700
H1977       H  0.89877895  0.92384216  0.04679165     0.16200
O1978       O  0.86903975  0.96712317  0.06609513    -0.60800
H1979       H  0.85186563  0.95616150  0.06787673     0.43200
H1980       H  0.89951875  0.94265997  0.88069163     0.43200
C1981       C  0.67593299  0.08042548  0.94669955    -0.05900
C1982       C  0.65929382  0.07726985  0.98449286    -0.33300
C1983       C  0.63244835  0.06781176  0.98139319     0.35900
C1984       C  0.62143648  0.06131844  0.93959201    -0.06300
C1985       C  0.63758618  0.06601138  0.90147367    -0.33200
C1986       C  0.66453889  0.07546239  0.90466823     0.35800
H1987       H  0.66730239  0.08142823  0.01705863     0.16200
O1988       O  0.61741833  0.06475140  0.01979405    -0.60700
H1989       H  0.62954682  0.06186573  0.86893690     0.16200
O1990       O  0.67961815  0.07912971  0.86644692    -0.60800
H1991       H  0.68584663  0.06022338  0.85873843     0.43200
H1992       H  0.62268083  0.04628939  0.03269561     0.43200
C1993       C  0.73612618  0.19839474  0.92300477    -0.05900
C1994       C  0.72893437  0.21320050  0.96090083    -0.33300
C1995       C  0.70922153  0.23419584  0.95883092     0.35900
C1996       C  0.69666947  0.24119143  0.91818477    -0.06300
C1997       C  0.70466623  0.22731284  0.87985690    -0.33200
C1998       C  0.72387115  0.20575217  0.88212386     0.35800
H1999       H  0.73785433  0.20782935  0.99284527     0.16200
O2000       O  0.70194203  0.24725654  0.99695018    -0.60700
H2001       H  0.69512118  0.23233801  0.84825869     0.16200
O2002       O  0.73045140  0.19208631  0.84424129    -0.60800
H2003       H  0.71523294  0.17881606  0.83993750     0.43200
H2004       H  0.71559720  0.26230454  0.00008923     0.43200
C2005       C  0.79930301  0.07202322  0.66621691    -0.05900
C2006       C  0.82494793  0.07387106  0.68700357    -0.33300
C2007       C  0.82718591  0.08076880  0.73163497     0.35900
C2008       C  0.80345952  0.08603763  0.75701678    -0.06300
C2009       C  0.77779310  0.08335459  0.73659433    -0.33200
C2010       C  0.77556977  0.07621886  0.69206657     0.35800
H2011       H  0.84363622  0.07068530  0.66839054     0.16200
O2012       O  0.85276299  0.08204971  0.74994780    -0.60700
H2013       H  0.75912043  0.08669676  0.75518424     0.16200
O2014       O  0.74997936  0.07394061  0.67416785    -0.60800
H2015       H  0.74488495  0.05409494  0.67892814     0.43200
H2016       H  0.86009851  0.10054426  0.74047759     0.43200
C2017       C  0.80390318  0.08865829  0.25765131    -0.05900
C2018       C  0.77829438  0.08760748  0.23663539    -0.33300
C2019       C  0.77594691  0.08049645  0.19206443     0.35900
C2020       C  0.79951818  0.07402704  0.16704129    -0.06300
C2021       C  0.82505362  0.07434208  0.18843499    -0.33200
C2022       C  0.82739013  0.08142560  0.23298019     0.35800
H2023       H  0.75975701  0.09242216  0.25468558     0.16200
O2024       O  0.75040942  0.08005726  0.17347477    -0.60700
H2025       H  0.84361551  0.06962161  0.17039419     0.16200
O2026       O  0.85292012  0.08157964  0.25159400    -0.60800
H2027       H  0.85582746  0.06230466  0.26335729     0.43200
H2028       H  0.74530755  0.09988583  0.16846117     0.43200
C2029       C  0.97973366  0.12384076  0.98806713    -0.05900
C2030       C  0.96285224  0.12194341  0.02556769    -0.33300
C2031       C  0.93645279  0.11100400  0.02229827     0.35900
C2032       C  0.92697831  0.10172965  0.98098270    -0.06300
C2033       C  0.94510130  0.10118937  0.94486117    -0.33200
C2034       C  0.97131250  0.11208850  0.94823191     0.35800
H2035       H  0.96913923  0.13120594  0.05618867     0.16200
O2036       O  0.91955154  0.11146283  0.05874478    -0.60700
H2037       H  0.93850957  0.09360910  0.91318262     0.16200
O2038       O  0.98772000  0.11356276  0.91115089    -0.60800
H2039       H  0.00039977  0.09752478  0.91441215     0.43200
H2040       H  0.91062428  0.13000821  0.05728300     0.43200
loop_ 
_geom_bond_atom_site_label_1 
_geom_bond_atom_site_label_2 
_geom_bond_distance 
_geom_bond_site_symmetry_2 
_ccdc_geom_bond_type 
Zr1           O2   2.443       .  S
Zr1           O3   2.452       .  S
Zr1           O4   2.449       .  S
Zr1           O7   2.404       .  S
Zr1           O9   2.381       .  S
Zr1          O10   2.385   1_554  S
Zr1          O11   2.407       .  S
Zr1          O12   2.410   1_554  S
O2           H58   0.991       .  S
O2           H66   0.990       .  S
O3           C23   1.284   1_554  A
O4           C25   1.286       .  A
O5          Zr15   2.432       .  S
O5           C24   1.286       .  A
O6          Zr14   2.437       .  S
O6           C25   1.285       .  A
O7           C24   1.278   1_554  A
O8          Zr16   2.403       .  S
O8           C23   1.279       .  A
O9          Zr14   2.403       .  S
O9          Zr16   2.387   1_554  S
O10         Zr15   2.382       .  S
O10         Zr16   2.380       .  S
O10          H45   0.965       .  S
O11         Zr14   2.402       .  S
O11         Zr31   2.387   1_554  S
O11          H48   0.964       .  S
O12         Zr15   2.389       .  S
O12         Zr31   2.384       .  S
Zr13         O38   2.443       .  S
Zr13         O32   2.439       .  S
Zr13         O40   2.446       .  S
Zr13         O28   2.424       .  S
Zr13         O19   2.389       .  S
Zr13         O20   2.418       .  S
Zr13         O21   2.379       .  S
Zr13         O22   2.385       .  S
Zr14         O33   2.436       .  S
Zr14         O26   2.435       .  S
Zr14         O27   2.430   1_554  S
Zr14         O20   2.399   1_554  S
Zr14         O21   2.392   1_554  S
Zr15         O17   2.437       .  S
Zr15         O39   2.437       .  S
Zr15         O41   2.439       .  S
Zr15         O19   2.383       .  S
Zr15         O22   2.394       .  S
Zr16         O42   2.436       .  S
Zr16         O43   2.437       .  S
Zr16         O18   2.438   1_545  S
Zr16         O19   2.382       .  S
Zr16         O20   2.388       .  S
O17          H54   0.990       .  S
O18          H49   0.990       .  S
O18          H63   0.990       .  S
O20          H46   0.965       .  S
O21         Zr31   2.379       .  S
O22         Zr31   2.381       .  S
O22          H47   0.967       .  S
C23        C1969   1.469   1_545  S
C24        C2032   1.473       .  S
C25        C2020   1.495       .  S
O26          H62   0.990       .  S
O27          C29   1.285       .  A
O28          C29   1.281       .  A
C29        C1981   1.481       .  S
O30         Zr31   2.438   1_554  S
O30          H59   0.990       .  S
Zr31         O34   2.440   1_556  S
Zr31         O35   2.438       .  S
Zr31         O36   2.394       .  S
O32          C37   1.283       .  A
O33          H50   0.990       .  S
O33          H65   0.990       .  S
O34          H51   0.989       .  S
O35          H55   0.990       .  S
O35          H64   0.990       .  S
O36          C37   1.277       .  A
C37        C1993   1.478       .  S
O38          H57   0.991       .  S
O38          H61   0.990       .  S
O39          H53   0.989       .  S
O39          H60   0.990       .  S
O40          C44   1.287       .  A
O41          C44   1.286       .  A
O42          H52   0.990       .  S
O43          H56   0.990       .  S
C44        C2008   1.494       .  S
Zr67         O68   2.445       .  S
Zr67         O69   2.447       .  S
Zr67         O70   2.446       .  S
Zr67         O73   2.439       .  S
Zr67         O75   2.390       .  S
Zr67         O76   2.395       .  S
Zr67         O77   2.422       .  S
Zr67         O78   2.399       .  S
O68         H124   0.990       .  S
O68         H132   0.991       .  S
O69          C89   1.281   1_545  A
O70          C91   1.286       .  A
O71         Zr81   2.449       .  S
O71          C90   1.290       .  A
O72         Zr80   2.446       .  S
O72          C91   1.287       .  A
O73          C90   1.284       .  A
O74         Zr82   2.398   1_565  S
O74          C89   1.272       .  A
O75         Zr80   2.403       .  S
O75         Zr82   2.381       .  S
O76         Zr81   2.394       .  S
O76         Zr82   2.386       .  S
O76         H111   0.966       .  S
O77         Zr80   2.411       .  S
O77         Zr97   2.385       .  S
O77         H114   0.964       .  S
O78         Zr81   2.374       .  S
O78         Zr97   2.381       .  S
Zr79        O104   2.443       .  S
Zr79         O98   2.453       .  S
Zr79        O106   2.450       .  S
Zr79         O94   2.427       .  S
Zr79         O85   2.390       .  S
Zr79         O86   2.418       .  S
Zr79         O87   2.376       .  S
Zr79         O88   2.387       .  S
Zr80         O99   2.435       .  S
Zr80         O92   2.435       .  S
Zr80         O93   2.459       .  S
Zr80         O86   2.400       .  S
Zr80         O87   2.392       .  S
Zr81         O83   2.436       .  S
Zr81        O105   2.437       .  S
Zr81        O107   2.440       .  S
Zr81         O85   2.382       .  S
Zr81         O88   2.405       .  S
Zr82        O108   2.437       .  S
Zr82        O109   2.437       .  S
Zr82         O84   2.438       .  S
Zr82         O85   2.383       .  S
Zr82         O86   2.383       .  S
O83         H120   0.990       .  S
O84         H115   0.990   1_545  S
O84         H129   0.989       .  S
O86         H112   0.964       .  S
O87         Zr97   2.375       .  S
O88         Zr97   2.391       .  S
O88         H113   0.965       .  S
C89        C1924   1.486       .  S
C90        C1960   1.473       .  S
C91        C2005   1.493       .  S
O92         H128   0.990       .  S
O93          C95   1.290       .  A
O94          C95   1.282       .  A
C95        C1936   1.481       .  S
O96         Zr97   2.437       .  S
O96         H125   0.990       .  S
Zr97        O100   2.438       .  S
Zr97        O101   2.439       .  S
Zr97        O102   2.409       .  S
O98         C103   1.287       .  A
O99         H116   0.990       .  S
O99         H131   0.990       .  S
O100        H117   0.990       .  S
O101        H121   0.990       .  S
O101        H130   0.990       .  S
O102        C103   1.278       .  A
C103       C1948   1.490       .  S
O104        H123   0.991       .  S
O104        H127   0.991       .  S
O105        H119   0.990       .  S
O105        H126   0.990       .  S
O106        C110   1.288       .  A
O107        C110   1.286       .  A
O108        H118   0.990       .  S
O109        H122   0.990       .  S
C110       C2017   1.495       .  S
Zr133       O134   2.444       .  S
Zr133       O135   2.453       .  S
Zr133       O136   2.443       .  S
Zr133       O139   2.423       .  S
Zr133       O141   2.381       .  S
Zr133       O142   2.386       .  S
Zr133       O143   2.416       .  S
Zr133       O144   2.406       .  S
O134        H190   0.991       .  S
O134        H198   0.990       .  S
O135        C155   1.284       .  A
O136        C157   1.285       .  A
O137       Zr147   2.431       .  S
O137        C156   1.285       .  A
O138       Zr146   2.435       .  S
O138        C157   1.285       .  A
O139        C156   1.282       .  A
O140       Zr148   2.391       .  S
O140        C155   1.276       .  A
O141       Zr146   2.405       .  S
O141       Zr148   2.383       .  S
O142       Zr147   2.392       .  S
O142       Zr148   2.383       .  S
O142        H177   0.965       .  S
O143       Zr146   2.405       .  S
O143       Zr163   2.387       .  S
O143        H180   0.964       .  S
O144       Zr147   2.385       .  S
O144       Zr163   2.388       .  S
Zr145       O170   2.444   1_556  S
Zr145       O164   2.438       .  S
Zr145       O172   2.445   1_556  S
Zr145       O160   2.419       .  S
Zr145       O151   2.386       .  S
Zr145       O152   2.418       .  S
Zr145       O153   2.379       .  S
Zr145       O154   2.384       .  S
Zr146       O165   2.434       .  S
Zr146       O158   2.435       .  S
Zr146       O159   2.442       .  S
Zr146       O152   2.398       .  S
Zr146       O153   2.385       .  S
Zr147       O149   2.438       .  S
Zr147       O171   2.439       .  S
Zr147       O173   2.432   1_556  S
Zr147       O151   2.379       .  S
Zr147       O154   2.395       .  S
Zr148       O174   2.436       .  S
Zr148       O175   2.436       .  S
Zr148       O150   2.437       .  S
Zr148       O151   2.376       .  S
Zr148       O152   2.380       .  S
O149        H186   0.990       .  S
O150        H181   0.990       .  S
O150        H195   0.990       .  S
O152        H178   0.963       .  S
O153       Zr163   2.379       .  S
O154       Zr163   2.386       .  S
O154        H179   0.965       .  S
C155       C1861   1.469       .  S
C156       C1909   1.477       .  S
C157       C1885   1.491       .  S
O158        H194   0.990       .  S
O159        C161   1.288       .  A
O160        C161   1.282       .  A
C161       C1873   1.480       .  S
O162       Zr163   2.438       .  S
O162        H191   0.990       .  S
Zr163       O166   2.437       .  S
Zr163       O167   2.438       .  S
Zr163       O168   2.400       .  S
O164        C169   1.282       .  A
O165        H182   0.990       .  S
O165        H197   0.990       .  S
O166        H183   0.990       .  S
O167        H187   0.990       .  S
O167        H196   0.990       .  S
O168        C169   1.276       .  A
C169       C1996   1.472       .  S
O170        H189   0.990       .  S
O170        H193   0.991       .  S
O171        H185   0.990   1_556  S
O171        H192   0.990       .  S
O172        C176   1.285       .  A
O173        C176   1.285       .  A
O174        H184   0.990       .  S
O175        H188   0.990   1_556  S
C176       C1897   1.488       .  S
Zr199       O200   2.444       .  S
Zr199       O201   2.442       .  S
Zr199       O202   2.436       .  S
Zr199       O205   2.414       .  S
Zr199       O207   2.380       .  S
Zr199       O208   2.385       .  S
Zr199       O209   2.409       .  S
Zr199       O210   2.404       .  S
O200        H256   0.989       .  S
O200        H264   0.992       .  S
O201        C221   1.281       .  A
O202        C223   1.284       .  A
O203       Zr213   2.447       .  S
O203        C222   1.288       .  A
O204       Zr212   2.434       .  S
O204        C223   1.285       .  A
O205        C222   1.281       .  A
O206       Zr214   2.397       .  S
O206        C221   1.278       .  A
O207       Zr212   2.406       .  S
O207       Zr214   2.385       .  S
O208       Zr213   2.395       .  S
O208       Zr214   2.372       .  S
O208        H243   0.965       .  S
O209       Zr212   2.404       .  S
O209       Zr229   2.389       .  S
O209        H246   0.964       .  S
O210       Zr213   2.387       .  S
O210       Zr229   2.387       .  S
Zr211       O236   2.443       .  S
Zr211       O230   2.454       .  S
Zr211       O238   2.431       .  S
Zr211       O226   2.414       .  S
Zr211       O217   2.402       .  S
Zr211       O218   2.413       .  S
Zr211       O219   2.370       .  S
Zr211       O220   2.386       .  S
Zr212       O231   2.437       .  S
Zr212       O224   2.433       .  S
Zr212       O225   2.446       .  S
Zr212       O218   2.394       .  S
Zr212       O219   2.384       .  S
Zr213       O215   2.436       .  S
Zr213       O237   2.437       .  S
Zr213       O239   2.441       .  S
Zr213       O217   2.391       .  S
Zr213       O220   2.408       .  S
Zr214       O240   2.435       .  S
Zr214       O241   2.436       .  S
Zr214       O216   2.437       .  S
Zr214       O217   2.387       .  S
Zr214       O218   2.372       .  S
O215        H252   0.990       .  S
O216        H247   0.990       .  S
O216        H261   0.990       .  S
O218        H244   0.964       .  S
O219       Zr229   2.377       .  S
O220       Zr229   2.385       .  S
O220        H245   0.966       .  S
C221       C1825   1.478       .  S
C222       C1849   1.478       .  S
C223       C1900   1.489       .  S
O224        H260   0.990       .  S
O225        C227   1.288       .  A
O226        C227   1.280       .  A
C227       C1837   1.484       .  S
O228       Zr229   2.437       .  S
O228        H257   0.990       .  S
Zr229       O232   2.437       .  S
Zr229       O233   2.438       .  S
Zr229       O234   2.411       .  S
O230        C235   1.286       .  A
O231        H248   0.990       .  S
O231        H263   0.990       .  S
O232        H249   0.990       .  S
O233        H253   0.990       .  S
O233        H262   0.990       .  S
O234        C235   1.279       .  A
C235       C1945   1.481       .  S
O236        H255   0.990       .  S
O236        H259   0.991       .  S
O237        H251   0.990       .  S
O237        H258   0.990       .  S
O238        C242   1.283       .  A
O239        C242   1.286       .  A
O240        H250   0.990       .  S
O241        H254   0.990       .  S
C242       C1888   1.492       .  S
Zr265       O266   2.438       .  S
Zr265       O267   2.416       .  S
Zr265       O268   2.410       .  S
Zr265       O271   2.422       .  S
Zr265       O273   2.388       .  S
Zr265       O274   2.377       .  S
Zr265       O275   2.404   1_565  S
Zr265       O276   2.398   1_565  S
O266        H322   0.990       .  S
O266        H330   0.990   1_565  S
O267        C287   1.281       .  A
O268        C289   1.282       .  A
O269       Zr279   2.415   1_565  S
O269        C288   1.282       .  A
O270       Zr278   2.418       .  S
O270        C289   1.281   1_545  A
O271        C288   1.282       .  A
O272       Zr280   2.436       .  S
O272        C287   1.286       .  A
O273       Zr278   2.394   1_565  S
O273       Zr280   2.378       .  S
O274       Zr279   2.386   1_565  S
O274       Zr280   2.364       .  S
O274        H309   0.965       .  S
O275       Zr278   2.414       .  S
O275       Zr295   2.386       .  S
O275        H312   0.965       .  S
O276       Zr279   2.377       .  S
O276       Zr295   2.392       .  S
Zr277       O302   2.441   1_556  S
Zr277       O296   2.447       .  S
Zr277       O304   2.429   1_556  S
Zr277       O292   2.387       .  S
Zr277       O283   2.387   1_546  S
Zr277       O284   2.409       .  S
Zr277       O285   2.367       .  S
Zr277       O286   2.384       .  S
Zr278       O297   2.440       .  S
Zr278       O290   2.434   1_545  S
Zr278       O291   2.452       .  S
Zr278       O284   2.388       .  S
Zr278       O285   2.366       .  S
Zr279       O281   2.434       .  S
Zr279       O303   2.440   1_546  S
Zr279       O305   2.401   1_556  S
Zr279       O283   2.390   1_546  S
Zr279       O286   2.389       .  S
Zr280       O306   2.436   1_556  S
Zr280       O307   2.435   1_556  S
Zr280       O282   2.437       .  S
Zr280       O283   2.391   1_556  S
Zr280       O284   2.398   1_565  S
O281        H318   0.990   1_556  S
O282        H313   0.990       .  S
O282        H327   0.990       .  S
O284        H310   0.966   1_545  S
O285       Zr295   2.365       .  S
O286       Zr295   2.380       .  S
O286        H311   0.966       .  S
C287       C1780   1.485       .  S
C288       C1789   1.477       .  S
C289       C1804   1.470   1_565  S
O290        H326   0.990       .  S
O291        C293   1.289       .  A
O292        C293   1.276       .  A
C293       C1984   1.485       .  S
O294       Zr295   2.437       .  S
O294        H323   0.990       .  S
Zr295       O298   2.436       .  S
Zr295       O299   2.439       .  S
Zr295       O300   2.409       .  S
O296        C301   1.286       .  A
O297        H314   0.990       .  S
O297        H329   0.990       .  S
O298        H315   0.990       .  S
O299        H319   0.990       .  S
O299        H328   0.990       .  S
O300        C301   1.281       .  A
C301       C1876   1.474       .  S
O302        H321   0.991       .  S
O302        H325   0.990       .  S
O303        H317   0.990       .  S
O303        H324   0.991       .  S
O304        C308   1.284       .  A
O305        C308   1.278       .  A
O306        H316   0.990       .  S
O307        H320   0.990       .  S
C308       C1816   1.472       .  S
Zr331       O332   2.442       .  S
Zr331       O333   2.424       .  S
Zr331       O334   2.436   1_565  S
Zr331       O337   2.444       .  S
Zr331       O339   2.389       .  S
Zr331       O340   2.379       .  S
Zr331       O341   2.407   1_565  S
Zr331       O342   2.399   1_565  S
O332        H388   0.991       .  S
O332        H396   0.990   1_565  S
O333        C353   1.281       .  A
O334        C355   1.284       .  A
O335       Zr345   2.392   1_565  S
O335        C354   1.277       .  A
O336       Zr344   2.410       .  S
O336        C355   1.281       .  A
O337        C354   1.287       .  A
O338       Zr346   2.417       .  S
O338        C353   1.282       .  A
O339       Zr344   2.401   1_565  S
O339       Zr346   2.376       .  S
O340       Zr345   2.380   1_565  S
O340       Zr346   2.372       .  S
O340        H375   0.966       .  S
O341       Zr344   2.424       .  S
O341       Zr361   2.391       .  S
O341        H378   0.965       .  S
O342       Zr345   2.383       .  S
O342       Zr361   2.387       .  S
Zr343       O368   2.441       .  S
Zr343       O362   2.448       .  S
Zr343       O370   2.429       .  S
Zr343       O358   2.396       .  S
Zr343       O349   2.391   1_545  S
Zr343       O350   2.408       .  S
Zr343       O351   2.362       .  S
Zr343       O352   2.385       .  S
Zr344       O363   2.436       .  S
Zr344       O356   2.434       .  S
Zr344       O357   2.471       .  S
Zr344       O350   2.388       .  S
Zr344       O351   2.355       .  S
Zr345       O347   2.435       .  S
Zr345       O369   2.439   1_545  S
Zr345       O371   2.381       .  S
Zr345       O349   2.384   1_545  S
Zr345       O352   2.385       .  S
Zr346       O372   2.435       .  S
Zr346       O373   2.435       .  S
Zr346       O348   2.437       .  S
Zr346       O349   2.391       .  S
Zr346       O350   2.395   1_565  S
O347        H384   0.990       .  S
O348        H379   0.990       .  S
O348        H393   0.990       .  S
O350        H376   0.966       .  S
O351       Zr361   2.366       .  S
O352       Zr361   2.380       .  S
O352        H377   0.965       .  S
C353       C1753   1.477       .  S
C354       C1768   1.479       .  S
C355       C1813   1.468       .  S
O356        H392   0.990   1_545  S
O357        C359   1.293       .  A
O358        C359   1.278       .  A
C359       C1933   1.490       .  S
O360       Zr361   2.439       .  S
O360        H389   0.990       .  S
Zr361       O364   2.437       .  S
Zr361       O365   2.439       .  S
Zr361       O366   2.403       .  S
O362        C367   1.285       .  A
O363        H380   0.990       .  S
O363        H395   0.990       .  S
O364        H381   0.990       .  S
O365        H385   0.990       .  S
O365        H394   0.990       .  S
O366        C367   1.280       .  A
C367       C1840   1.469       .  S
O368        H387   0.991       .  S
O368        H391   0.990       .  S
O369        H383   0.990       .  S
O369        H390   0.990       .  S
O370        C374   1.283       .  A
O371        C374   1.275       .  A
O372        H382   0.990       .  S
O373        H386   0.990       .  S
C374       C1801   1.462       .  S
Zr397       O398   2.442       .  S
Zr397       O399   2.450       .  S
Zr397       O400   2.456       .  S
Zr397       O403   2.433       .  S
Zr397       O405   2.388       .  S
Zr397       O406   2.404       .  S
Zr397       O407   2.417       .  S
Zr397       O408   2.402       .  S
O398        H454   0.990       .  S
O398        H462   0.991       .  S
O399        C419   1.279       .  A
O400        C421   1.289       .  A
O401       Zr411   2.449       .  S
O401        C420   1.290       .  A
O402       Zr410   2.425       .  S
O402        C421   1.283       .  A
O403        C420   1.285       .  A
O404       Zr412   2.392       .  S
O404        C419   1.267       .  A
O405       Zr410   2.398       .  S
O405       Zr412   2.384       .  S
O406       Zr411   2.392       .  S
O406       Zr412   2.384       .  S
O406        H441   0.965       .  S
O407       Zr410   2.407       .  S
O407       Zr427   2.386       .  S
O407        H444   0.964       .  S
O408       Zr411   2.384       .  S
O408       Zr427   2.375       .  S
Zr409       O434   2.440       .  S
Zr409       O428   2.437       .  S
Zr409       O436   2.436       .  S
Zr409       O424   2.447       .  S
Zr409       O415   2.392       .  S
Zr409       O416   2.407       .  S
Zr409       O417   2.378       .  S
Zr409       O418   2.389       .  S
Zr410       O429   2.435       .  S
Zr410       O422   2.435       .  S
Zr410       O423   2.434       .  S
Zr410       O416   2.408       .  S
Zr410       O417   2.389       .  S
Zr411       O413   2.436       .  S
Zr411       O435   2.438       .  S
Zr411       O437   2.442       .  S
Zr411       O415   2.387       .  S
Zr411       O418   2.398       .  S
Zr412       O438   2.437       .  S
Zr412       O439   2.436       .  S
Zr412       O414   2.438       .  S
Zr412       O415   2.382       .  S
Zr412       O416   2.371       .  S
O413        H450   0.990       .  S
O414        H445   0.990       .  S
O414        H459   0.990       .  S
O416        H442   0.963       .  S
O417       Zr427   2.384       .  S
O418       Zr427   2.383       .  S
O418        H443   0.967       .  S
C419       C1696   1.484       .  S
C420       C1741   1.485       .  S
C421       C1720   1.486       .  S
O422        H458   0.990       .  S
O423        C425   1.285       .  A
O424        C425   1.287       .  A
C425       C1777   1.484       .  S
O426       Zr427   2.436       .  S
O426        H455   0.990       .  S
Zr427       O430   2.436       .  S
Zr427       O431   2.439       .  S
Zr427       O432   2.391       .  S
O428        C433   1.283       .  A
O429        H446   0.990       .  S
O429        H461   0.990       .  S
O430        H447   0.990       .  S
O431        H451   0.990       .  S
O431        H460   0.990       .  S
O432        C433   1.276       .  A
C433       C1705   1.472       .  S
O434        H453   0.992       .  S
O434        H457   0.988       .  S
O435        H449   0.990       .  S
O435        H456   0.990       .  S
O436        C440   1.285   1_556  A
O437        C440   1.287   1_556  A
O438        H448   0.990       .  S
O439        H452   0.990       .  S
C440       C1729   1.492       .  S
Zr463       O464   2.442       .  S
Zr463       O465   2.473       .  S
Zr463       O466   2.444       .  S
Zr463       O469   2.432       .  S
Zr463       O471   2.378       .  S
Zr463       O472   2.380       .  S
Zr463       O473   2.424       .  S
Zr463       O474   2.413       .  S
O464        H520   0.990       .  S
O464        H528   0.990       .  S
O465        C485   1.288       .  A
O466        C487   1.286       .  A
O467       Zr477   2.419       .  S
O467        C486   1.283       .  A
O468       Zr476   2.437       .  S
O468        C487   1.285       .  A
O469        C486   1.282       .  A
O470       Zr478   2.366       .  S
O470        C485   1.272       .  A
O471       Zr476   2.399       .  S
O471       Zr478   2.381       .  S
O472       Zr477   2.392       .  S
O472       Zr478   2.385       .  S
O472        H507   0.965       .  S
O473       Zr476   2.405       .  S
O473       Zr493   2.394       .  S
O473        H510   0.964       .  S
O474       Zr477   2.383       .  S
O474       Zr493   2.392       .  S
Zr475       O500   2.442       .  S
Zr475       O494   2.429       .  S
Zr475       O502   2.465       .  S
Zr475       O490   2.434       .  S
Zr475       O481   2.382       .  S
Zr475       O482   2.412       .  S
Zr475       O483   2.383       .  S
Zr475       O484   2.388       .  S
Zr476       O495   2.437       .  S
Zr476       O488   2.434       .  S
Zr476       O489   2.433       .  S
Zr476       O482   2.404       .  S
Zr476       O483   2.399       .  S
Zr477       O479   2.436       .  S
Zr477       O501   2.440       .  S
Zr477       O503   2.414       .  S
Zr477       O481   2.381       .  S
Zr477       O484   2.393       .  S
Zr478       O504   2.435       .  S
Zr478       O505   2.436       .  S
Zr478       O480   2.438       .  S
Zr478       O481   2.368       .  S
Zr478       O482   2.375       .  S
O479        H516   0.990       .  S
O480        H511   0.990       .  S
O480        H525   0.990       .  S
O482        H508   0.964       .  S
O483       Zr493   2.377       .  S
O484       Zr493   2.382       .  S
O484        H509   0.967       .  S
C485       C1657   1.470       .  S
C486       C1681   1.470       .  S
C487       C1732   1.493       .  S
O488        H524   0.990       .  S
O489        C491   1.284       .  A
O490        C491   1.285       .  A
C491       C1756   1.472       .  S
O492       Zr493   2.436       .  S
O492        H521   0.990       .  S
Zr493       O496   2.436       .  S
Zr493       O497   2.438       .  S
Zr493       O498   2.411       .  S
O494        C499   1.282       .  A
O495        H512   0.990       .  S
O495        H527   0.990       .  S
O496        H513   0.990       .  S
O497        H517   0.990       .  S
O497        H526   0.990       .  S
O498        C499   1.278       .  A
C499       C1669   1.470       .  S
O500        H519   0.990       .  S
O500        H523   0.991       .  S
O501        H515   0.990       .  S
O501        H522   0.989       .  S
O502        C506   1.291       .  A
O503        C506   1.282       .  A
O504        H514   0.990       .  S
O505        H518   0.990       .  S
C506       C1717   1.491       .  S
Zr529       O530   2.442       .  S
Zr529       O531   2.456   1_554  S
Zr529       O532   2.433       .  S
Zr529       O535   2.422       .  S
Zr529       O537   2.380   1_554  S
Zr529       O538   2.382   1_554  S
Zr529       O539   2.417       .  S
Zr529       O540   2.407   1_554  S
O530        H586   0.991       .  S
O530        H594   0.990       .  S
O531        C551   1.286   1_565  A
O532        C553   1.283       .  A
O533       Zr543   2.450       .  S
O533        C552   1.288       .  A
O534       Zr542   2.431       .  S
O534        C553   1.283       .  A
O535        C552   1.280   1_554  A
O536       Zr544   2.379   1_545  S
O536        C551   1.275       .  A
O537       Zr542   2.400   1_556  S
O537       Zr544   2.385       .  S
O538       Zr543   2.395       .  S
O538       Zr544   2.389       .  S
O538        H573   0.967       .  S
O539       Zr542   2.399       .  S
O539       Zr559   2.395   1_554  S
O539        H576   0.964       .  S
O540       Zr543   2.377       .  S
O540       Zr559   2.391       .  S
Zr541       O566   2.443       .  S
Zr541       O560   2.419       .  S
Zr541       O568   2.448       .  S
Zr541       O556   2.432       .  S
Zr541       O547   2.380       .  S
Zr541       O548   2.407       .  S
Zr541       O549   2.381       .  S
Zr541       O550   2.389       .  S
Zr542       O561   2.438       .  S
Zr542       O554   2.434       .  S
Zr542       O555   2.416   1_554  S
Zr542       O548   2.397   1_554  S
Zr542       O549   2.391   1_554  S
Zr543       O545   2.436       .  S
Zr543       O567   2.438       .  S
Zr543       O569   2.436       .  S
Zr543       O547   2.385       .  S
Zr543       O550   2.398       .  S
Zr544       O570   2.434       .  S
Zr544       O571   2.436       .  S
Zr544       O546   2.435   1_565  S
Zr544       O547   2.363       .  S
Zr544       O548   2.378       .  S
O545        H582   0.990       .  S
O546        H577   0.990       .  S
O546        H591   0.990       .  S
O548        H574   0.966       .  S
O549       Zr559   2.374       .  S
O550       Zr559   2.385       .  S
O550        H575   0.964       .  S
C551       C1609   1.472       .  S
C552       C1645   1.472       .  S
C553       C1633   1.487       .  S
O554        H590   0.990       .  S
O555        C557   1.283       .  A
O556        C557   1.283       .  A
C557       C1792   1.476       .  S
O558       Zr559   2.438   1_554  S
O558        H587   0.990       .  S
Zr559       O562   2.438   1_556  S
Zr559       O563   2.441       .  S
Zr559       O564   2.418       .  S
O560        C565   1.281       .  A
O561        H578   0.990       .  S
O561        H593   0.990       .  S
O562        H579   0.990       .  S
O563        H583   0.990       .  S
O563        H592   0.990       .  S
O564        C565   1.280       .  A
C565       C1708   1.468       .  S
O566        H585   0.990       .  S
O566        H589   0.991       .  S
O567        H581   0.990       .  S
O567        H588   0.989       .  S
O568        C572   1.287       .  A
O569        C572   1.286       .  A
O570        H580   0.990       .  S
O571        H584   0.990       .  S
C572       C1624   1.489       .  S
Zr595       O596   2.443       .  S
Zr595       O597   2.438       .  S
Zr595       O598   2.445       .  S
Zr595       O601   2.417       .  S
Zr595       O603   2.382       .  S
Zr595       O604   2.386       .  S
Zr595       O605   2.405       .  S
Zr595       O606   2.401       .  S
O596        H652   0.990       .  S
O596        H660   0.990       .  S
O597        C617   1.283   1_565  A
O598        C619   1.285       .  A
O599       Zr609   2.416       .  S
O599        C618   1.282       .  A
O600       Zr608   2.423       .  S
O600        C619   1.282       .  A
O601        C618   1.282       .  A
O602       Zr610   2.404   1_545  S
O602        C617   1.278       .  A
O603       Zr608   2.398       .  S
O603       Zr610   2.380       .  S
O604       Zr609   2.384       .  S
O604       Zr610   2.376       .  S
O604        H639   0.965       .  S
O605       Zr608   2.403       .  S
O605       Zr625   2.396       .  S
O605        H642   0.964       .  S
O606       Zr609   2.389       .  S
O606       Zr625   2.387       .  S
Zr607       O632   2.441       .  S
Zr607       O626   2.430       .  S
Zr607       O634   2.437       .  S
Zr607       O622   2.416       .  S
Zr607       O613   2.394       .  S
Zr607       O614   2.413       .  S
Zr607       O615   2.377       .  S
Zr607       O616   2.378       .  S
Zr608       O627   2.437       .  S
Zr608       O620   2.434       .  S
Zr608       O621   2.426       .  S
Zr608       O614   2.399       .  S
Zr608       O615   2.388       .  S
Zr609       O611   2.438       .  S
Zr609       O633   2.440       .  S
Zr609       O635   2.421       .  S
Zr609       O613   2.392       .  S
Zr609       O616   2.393       .  S
Zr610       O636   2.435   1_565  S
Zr610       O637   2.437   1_565  S
Zr610       O612   2.439   1_565  S
Zr610       O613   2.398       .  S
Zr610       O614   2.380       .  S
O611        H648   0.989       .  S
O612        H643   0.990       .  S
O612        H657   0.990       .  S
O614        H640   0.965       .  S
O615       Zr625   2.373       .  S
O616       Zr625   2.388       .  S
O616        H641   0.965       .  S
C617       C1585   1.461       .  S
C618       C1600   1.481       .  S
C619       C1621   1.492       .  S
O620        H656   0.990       .  S
O621        C623   1.285       .  A
O622        C623   1.280       .  A
C623       C1765   1.472       .  S
O624       Zr625   2.439       .  S
O624        H653   0.991       .  S
Zr625       O628   2.437       .  S
Zr625       O629   2.440       .  S
Zr625       O630   2.415       .  S
O626        C631   1.283       .  A
O627        H644   0.991       .  S
O627        H659   0.990       .  S
O628        H645   0.990       .  S
O629        H649   0.990       .  S
O629        H658   0.989       .  S
O630        C631   1.280       .  A
C631       C1672   1.475       .  S
O632        H651   0.990       .  S
O632        H655   0.990       .  S
O633        H647   0.990       .  S
O633        H654   0.990       .  S
O634        C638   1.285       .  A
O635        C638   1.282       .  A
O636        H646   0.990       .  S
O637        H650   0.990       .  S
C638       C1636   1.486       .  S
Zr661       O662   2.440       .  S
Zr661       O663   2.465       .  S
Zr661       O664   2.458       .  S
Zr661       O667   2.435       .  S
Zr661       O669   2.383       .  S
Zr661       O670   2.387   1_554  S
Zr661       O671   2.416       .  S
Zr661       O672   2.403   1_554  S
O662        H718   0.989       .  S
O662        H726   0.991       .  S
O663        C683   1.287   1_654  A
O664        C685   1.288       .  A
O665       Zr675   2.439       .  S
O665        C684   1.288       .  A
O666       Zr674   2.446       .  S
O666        C685   1.288       .  A
O667        C684   1.285   1_554  A
O668       Zr676   2.386   1_455  S
O668        C683   1.275       .  A
O669       Zr674   2.405       .  S
O669       Zr676   2.383   1_554  S
O670       Zr675   2.397       .  S
O670       Zr676   2.380       .  S
O670        H705   0.966       .  S
O671       Zr674   2.408       .  S
O671       Zr691   2.394   1_554  S
O671        H708   0.963       .  S
O672       Zr675   2.385       .  S
O672       Zr691   2.385       .  S
Zr673       O698   2.443       .  S
Zr673       O692   2.445       .  S
Zr673       O700   2.449       .  S
Zr673       O688   2.423       .  S
Zr673       O679   2.388       .  S
Zr673       O680   2.420       .  S
Zr673       O681   2.381       .  S
Zr673       O682   2.384       .  S
Zr674       O693   2.436       .  S
Zr674       O686   2.435       .  S
Zr674       O687   2.451   1_554  S
Zr674       O680   2.400   1_554  S
Zr674       O681   2.392   1_554  S
Zr675       O677   2.436       .  S
Zr675       O699   2.436       .  S
Zr675       O701   2.456       .  S
Zr675       O679   2.374       .  S
Zr675       O682   2.404       .  S
Zr676       O702   2.435   1_655  S
Zr676       O703   2.436       .  S
Zr676       O678   2.438   1_655  S
Zr676       O679   2.375       .  S
Zr676       O680   2.372       .  S
O677        H714   0.990       .  S
O678        H709   0.990       .  S
O678        H723   0.990       .  S
O680        H706   0.963       .  S
O681       Zr691   2.376       .  S
O682       Zr691   2.392       .  S
O682        H707   0.965       .  S
C683       C1648   1.477   1_556  S
C684       C1972   1.486       .  S
C685       C1576   1.501       .  S
O686        H722   0.990       .  S
O687        C689   1.290       .  A
O688        C689   1.281       .  A
C689       C1537   1.481       .  S
O690       Zr691   2.435   1_554  S
O690        H719   0.990       .  S
Zr691       O694   2.438   1_556  S
Zr691       O695   2.440       .  S
Zr691       O696   2.413       .  S
O692        C697   1.283       .  A
O693        H710   0.990       .  S
O693        H725   0.990       .  S
O694        H711   0.990       .  S
O695        H715   0.990       .  S
O695        H724   0.990       .  S
O696        C697   1.279       .  A
C697       C1549   1.480       .  S
O698        H717   0.990       .  S
O698        H721   0.990       .  S
O699        H713   0.990       .  S
O699        H720   0.990       .  S
O700        C704   1.287       .  A
O701        C704   1.290       .  A
O702        H712   0.990       .  S
O703        H716   0.991       .  S
C704       C1561   1.500       .  S
Zr727       O728   2.441       .  S
Zr727       O729   2.451       .  S
Zr727       O730   2.452       .  S
Zr727       O733   2.414       .  S
Zr727       O735   2.376       .  S
Zr727       O736   2.389       .  S
Zr727       O737   2.411       .  S
Zr727       O738   2.407       .  S
O728        H784   0.990       .  S
O728        H792   0.991       .  S
O729        C749   1.284   1_655  A
O730        C751   1.285       .  A
O731       Zr741   2.444       .  S
O731        C750   1.288       .  A
O732       Zr740   2.445       .  S
O732        C751   1.287       .  A
O733        C750   1.279       .  A
O734       Zr742   2.376   1_455  S
O734        C749   1.274       .  A
O735       Zr740   2.397       .  S
O735       Zr742   2.388       .  S
O736       Zr741   2.392       .  S
O736       Zr742   2.386       .  S
O736        H771   0.966       .  S
O737       Zr740   2.393       .  S
O737       Zr757   2.390       .  S
O737        H774   0.964       .  S
O738       Zr741   2.389       .  S
O738       Zr757   2.392       .  S
Zr739       O764   2.442       .  S
Zr739       O758   2.440       .  S
Zr739       O766   2.449       .  S
Zr739       O754   2.436       .  S
Zr739       O745   2.385       .  S
Zr739       O746   2.415       .  S
Zr739       O747   2.379       .  S
Zr739       O748   2.384       .  S
Zr740       O759   2.436       .  S
Zr740       O752   2.435       .  S
Zr740       O753   2.414       .  S
Zr740       O746   2.409       .  S
Zr740       O747   2.405       .  S
Zr741       O743   2.436       .  S
Zr741       O765   2.440       .  S
Zr741       O767   2.455       .  S
Zr741       O745   2.378       .  S
Zr741       O748   2.397       .  S
Zr742       O768   2.438       .  S
Zr742       O769   2.438       .  S
Zr742       O744   2.436   1_655  S
Zr742       O745   2.369       .  S
Zr742       O746   2.377       .  S
O743        H780   0.990       .  S
O744        H775   0.990       .  S
O744        H789   0.990       .  S
O746        H772   0.965       .  S
O747       Zr757   2.371       .  S
O748       Zr757   2.384       .  S
O748        H773   0.965       .  S
C749       C1597   1.468       .  S
C750       C1921   1.471       .  S
C751       C1564   1.497       .  S
O752        H788   0.990   1_655  S
O753        C755   1.281       .  A
O754        C755   1.285       .  A
C755       C1513   1.472       .  S
O756       Zr757   2.438       .  S
O756        H785   0.990       .  S
Zr757       O760   2.438       .  S
Zr757       O761   2.437       .  S
Zr757       O762   2.416       .  S
O758        C763   1.284       .  A
O759        H776   0.990       .  S
O759        H791   0.990       .  S
O760        H777   0.990       .  S
O761        H781   0.990       .  S
O761        H790   0.990       .  S
O762        C763   1.280       .  A
C763       C1528   1.481       .  S
O764        H783   0.991       .  S
O764        H787   0.990       .  S
O765        H779   0.990       .  S
O765        H786   0.990       .  S
O766        C770   1.287       .  A
O767        C770   1.291       .  A
O768        H778   0.990       .  S
O769        H782   0.990       .  S
C770       C1573   1.492       .  S
Zr793       O794   2.445       .  S
Zr793       O795   2.459       .  S
Zr793       O796   2.436       .  S
Zr793       O799   2.413       .  S
Zr793       O801   2.374       .  S
Zr793       O802   2.384       .  S
Zr793       O803   2.419       .  S
Zr793       O804   2.403       .  S
O794        H850   0.990       .  S
O794        H858   0.990       .  S
O795        C815   1.285       .  A
O796        C817   1.284       .  A
O797       Zr807   2.455       .  S
O797        C816   1.289       .  A
O798       Zr806   2.437       .  S
O798        C817   1.285       .  A
O799        C816   1.279       .  A
O800       Zr808   2.379       .  S
O800        C815   1.274       .  A
O801       Zr806   2.400       .  S
O801       Zr808   2.379       .  S
O802       Zr807   2.395       .  S
O802       Zr808   2.389       .  S
O802        H837   0.965       .  S
O803       Zr806   2.400       .  S
O803       Zr823   2.394       .  S
O803        H840   0.965       .  S
O804       Zr807   2.384       .  S
O804       Zr823   2.380       .  S
Zr805       O830   2.442       .  S
Zr805       O824   2.437       .  S
Zr805       O832   2.452   1_556  S
Zr805       O820   2.438       .  S
Zr805       O811   2.381       .  S
Zr805       O812   2.413       .  S
Zr805       O813   2.381       .  S
Zr805       O814   2.393       .  S
Zr806       O825   2.436       .  S
Zr806       O818   2.434       .  S
Zr806       O819   2.434       .  S
Zr806       O812   2.401       .  S
Zr806       O813   2.394       .  S
Zr807       O809   2.435       .  S
Zr807       O831   2.439       .  S
Zr807       O833   2.450   1_556  S
Zr807       O811   2.378       .  S
Zr807       O814   2.406       .  S
Zr808       O834   2.436       .  S
Zr808       O835   2.435       .  S
Zr808       O810   2.437       .  S
Zr808       O811   2.370       .  S
Zr808       O812   2.381       .  S
O809        H846   0.990       .  S
O810        H841   0.990       .  S
O810        H855   0.990       .  S
O812        H838   0.965       .  S
O813       Zr823   2.378       .  S
O814       Zr823   2.387       .  S
O814        H839   0.968       .  S
C815       C1912   1.465       .  S
C816       C1693   1.465       .  S
C817       C1489   1.487       .  S
O818        H854   0.990       .  S
O819        C821   1.286       .  A
O820        C821   1.284       .  A
C821       C1477   1.483       .  S
O822       Zr823   2.437       .  S
O822        H851   0.990       .  S
Zr823       O826   2.434       .  S
Zr823       O827   2.437       .  S
Zr823       O828   2.412       .  S
O824        C829   1.283       .  A
O825        H842   0.990       .  S
O825        H857   0.990       .  S
O826        H843   0.990       .  S
O827        H847   0.990       .  S
O827        H856   0.990       .  S
O828        C829   1.279       .  A
C829       C1552   1.481       .  S
O830        H849   0.991       .  S
O830        H853   0.990       .  S
O831        H845   0.990       .  S
O831        H852   0.990       .  S
O832        C836   1.289       .  A
O833        C836   1.288       .  A
O834        H844   0.990       .  S
O835        H848   0.990       .  S
C836       C1501   1.497       .  S
Zr859       O860   2.444       .  S
Zr859       O861   2.457       .  S
Zr859       O862   2.448       .  S
Zr859       O865   2.410       .  S
Zr859       O867   2.382       .  S
Zr859       O868   2.386       .  S
Zr859       O869   2.410       .  S
Zr859       O870   2.413       .  S
O860        H916   0.991       .  S
O860        H924   0.990       .  S
O861        C881   1.286       .  A
O862        C883   1.285       .  A
O863       Zr873   2.449       .  S
O863        C882   1.289       .  A
O864       Zr872   2.430       .  S
O864        C883   1.283       .  A
O865        C882   1.278       .  A
O866       Zr874   2.389       .  S
O866        C881   1.276       .  A
O867       Zr872   2.402       .  S
O867       Zr874   2.388       .  S
O868       Zr873   2.383       .  S
O868       Zr874   2.384       .  S
O868        H903   0.965       .  S
O869       Zr872   2.406       .  S
O869       Zr889   2.395       .  S
O869        H906   0.964       .  S
O870       Zr873   2.387       .  S
O870       Zr889   2.394       .  S
Zr871       O896   2.444       .  S
Zr871       O890   2.434       .  S
Zr871       O898   2.448       .  S
Zr871       O886   2.434       .  S
Zr871       O877   2.386       .  S
Zr871       O878   2.411       .  S
Zr871       O879   2.379       .  S
Zr871       O880   2.393       .  S
Zr872       O891   2.435       .  S
Zr872       O884   2.434       .  S
Zr872       O885   2.433       .  S
Zr872       O878   2.396       .  S
Zr872       O879   2.394       .  S
Zr873       O875   2.436       .  S
Zr873       O897   2.440       .  S
Zr873       O899   2.432       .  S
Zr873       O877   2.388       .  S
Zr873       O880   2.398       .  S
Zr874       O900   2.436       .  S
Zr874       O901   2.436       .  S
Zr874       O876   2.436       .  S
Zr874       O877   2.370       .  S
Zr874       O878   2.383       .  S
O875        H912   0.990       .  S
O876        H907   0.990       .  S
O876        H921   0.990       .  S
O878        H904   0.965       .  S
O879       Zr889   2.376       .  S
O880       Zr889   2.383       .  S
O880        H905   0.967       .  S
C881       C1852   1.462       .  S
C882       C1660   1.484       .  S
C883       C1504   1.495       .  S
O884        H920   0.990       .  S
O885        C887   1.286       .  A
O886        C887   1.284       .  A
C887       C1465   1.482       .  S
O888       Zr889   2.435       .  S
O888        H917   0.990       .  S
Zr889       O892   2.436       .  S
Zr889       O893   2.440       .  S
Zr889       O894   2.420       .  S
O890        C895   1.282       .  A
O891        H908   0.991       .  S
O891        H923   0.990       .  S
O892        H909   0.990       .  S
O893        H913   0.990       .  S
O893        H922   0.990       .  S
O894        C895   1.280       .  A
C895       C1525   1.477       .  S
O896        H915   0.990       .  S
O896        H919   0.991       .  S
O897        H911   0.990       .  S
O897        H918   0.990       .  S
O898        C902   1.286       .  A
O899        C902   1.285       .  A
O900        H910   0.990       .  S
O901        H914   0.990       .  S
C902       C1492   1.488       .  S
Zr925       O926   2.443       .  S
Zr925       O927   2.450       .  S
Zr925       O928   2.457       .  S
Zr925       O931   2.431   1_554  S
Zr925       O933   2.388       .  S
Zr925       O934   2.385   1_554  S
Zr925       O935   2.415       .  S
Zr925       O936   2.408   1_554  S
O926        H982   0.990       .  S
O926        H990   0.991       .  S
O927        C947   1.284   1_554  A
O928        C949   1.286       .  A
O929       Zr939   2.419       .  S
O929        C948   1.281       .  A
O930       Zr938   2.431       .  S
O930        C949   1.286       .  A
O931        C948   1.284       .  A
O932       Zr940   2.376   1_655  S
O932        C947   1.274   1_655  A
O933       Zr938   2.398       .  S
O933       Zr940   2.385   1_554  S
O934       Zr939   2.388       .  S
O934       Zr940   2.380       .  S
O934        H969   0.966       .  S
O935       Zr938   2.402       .  S
O935       Zr955   2.384   1_554  S
O935        H972   0.964       .  S
O936       Zr939   2.392       .  S
O936       Zr955   2.394       .  S
Zr937       O962   2.441       .  S
Zr937       O956   2.453       .  S
Zr937       O964   2.470       .  S
Zr937       O952   2.432       .  S
Zr937       O943   2.385       .  S
Zr937       O944   2.423       .  S
Zr937       O945   2.384       .  S
Zr937       O946   2.386       .  S
Zr938       O957   2.438       .  S
Zr938       O950   2.435       .  S
Zr938       O951   2.435       .  S
Zr938       O944   2.400   1_554  S
Zr938       O945   2.398   1_554  S
Zr939       O941   2.434       .  S
Zr939       O963   2.441       .  S
Zr939       O965   2.419       .  S
Zr939       O943   2.376       .  S
Zr939       O946   2.399       .  S
Zr940       O966   2.435       .  S
Zr940       O967   2.436       .  S
Zr940       O942   2.438   1_455  S
Zr940       O943   2.370       .  S
Zr940       O944   2.374       .  S
O941        H978   0.990       .  S
O942        H973   0.990       .  S
O942        H987   0.990       .  S
O944        H970   0.964       .  S
O945       Zr955   2.380       .  S
O946       Zr955   2.382       .  S
O946        H971   0.966       .  S
C947       C2029   1.458   1_455  S
C948       C1612   1.483       .  S
C949       C1453   1.495       .  S
O950        H986   0.990       .  S
O951        C953   1.285   1_554  A
O952        C953   1.285       .  A
C953       C1420   1.473       .  S
O954       Zr955   2.436   1_554  S
O954        H983   0.990       .  S
Zr955       O958   2.435   1_556  S
Zr955       O959   2.436       .  S
Zr955       O960   2.408       .  S
O956        C961   1.286       .  A
O957        H974   0.990       .  S
O957        H989   0.990       .  S
O958        H975   0.990       .  S
O959        H979   0.990       .  S
O959        H988   0.990       .  S
O960        C961   1.278       .  A
C961       C1429   1.478       .  S
O962        H981   0.990       .  S
O962        H985   0.990       .  S
O963        H977   0.990       .  S
O963        H984   0.990       .  S
O964        C968   1.291       .  A
O965        C968   1.283       .  A
O966        H976   0.990       .  S
O967        H980   0.990       .  S
C968       C1441   1.486       .  S
Zr991       O992   2.441       .  S
Zr991       O993   2.471       .  S
Zr991       O994   2.459       .  S
Zr991       O997   2.426       .  S
Zr991       O999   2.381       .  S
Zr991      O1000   2.390       .  S
Zr991      O1001   2.415       .  S
Zr991      O1002   2.404       .  S
O992       H1048   0.989       .  S
O992       H1056   0.991       .  S
O993       C1013   1.288   1_455  A
O994       C1015   1.289       .  A
O995      Zr1005   2.453       .  S
O995       C1014   1.288       .  A
O996      Zr1004   2.425       .  S
O996       C1015   1.283       .  A
O997       C1014   1.282       .  A
O998      Zr1006   2.390   1_655  S
O998       C1013   1.277       .  A
O999      Zr1004   2.401       .  S
O999      Zr1006   2.384       .  S
O1000     Zr1005   2.397       .  S
O1000     Zr1006   2.385       .  S
O1000      H1035   0.965       .  S
O1001     Zr1004   2.397       .  S
O1001     Zr1021   2.393       .  S
O1001      H1038   0.964       .  S
O1002     Zr1005   2.376       .  S
O1002     Zr1021   2.379       .  S
Zr1003     O1028   2.440       .  S
Zr1003     O1022   2.449       .  S
Zr1003     O1030   2.447       .  S
Zr1003     O1018   2.422       .  S
Zr1003     O1009   2.389       .  S
Zr1003     O1010   2.418       .  S
Zr1003     O1011   2.376       .  S
Zr1003     O1012   2.384       .  S
Zr1004     O1023   2.437       .  S
Zr1004     O1016   2.435       .  S
Zr1004     O1017   2.432       .  S
Zr1004     O1010   2.398       .  S
Zr1004     O1011   2.386       .  S
Zr1005     O1007   2.438       .  S
Zr1005     O1029   2.438       .  S
Zr1005     O1031   2.439       .  S
Zr1005     O1009   2.384       .  S
Zr1005     O1012   2.408       .  S
Zr1006     O1032   2.435       .  S
Zr1006     O1033   2.436       .  S
Zr1006     O1008   2.439   1_455  S
Zr1006     O1009   2.378       .  S
Zr1006     O1010   2.377       .  S
O1007      H1044   0.990       .  S
O1008      H1039   0.990       .  S
O1008      H1053   0.990       .  S
O1010      H1036   0.965       .  S
O1011     Zr1021   2.371       .  S
O1012     Zr1021   2.388       .  S
O1012      H1037   0.965       .  S
C1013      C1957   1.491       .  S
C1014      C1588   1.468       .  S
C1015      C1444   1.492       .  S
O1016      H1052   0.990       .  S
O1017      C1019   1.286       .  A
O1018      C1019   1.281       .  A
C1019      C1393   1.480       .  S
O1020     Zr1021   2.435       .  S
O1020      H1049   0.990       .  S
Zr1021     O1024   2.435       .  S
Zr1021     O1025   2.440       .  S
Zr1021     O1026   2.408       .  S
O1022      C1027   1.285       .  A
O1023      H1040   0.990       .  S
O1023      H1055   0.991       .  S
O1024      H1041   0.990       .  S
O1025      H1045   0.990       .  S
O1025      H1054   0.990       .  S
O1026      C1027   1.279       .  A
C1027      C1405   1.485       .  S
O1028      H1047   0.990       .  S
O1028      H1051   0.990       .  S
O1029      H1043   0.990       .  S
O1029      H1050   0.990       .  S
O1030      C1034   1.288       .  A
O1031      C1034   1.286       .  A
O1032      H1042   0.990       .  S
O1033      H1046   0.990       .  S
C1034      C1456   1.494       .  S
Zr1057     O1058   2.444       .  S
Zr1057     O1059   2.463       .  S
Zr1057     O1060   2.458       .  S
Zr1057     O1063   2.440       .  S
Zr1057     O1065   2.386       .  S
Zr1057     O1066   2.388       .  S
Zr1057     O1067   2.420       .  S
Zr1057     O1068   2.410       .  S
O1058      H1114   0.991       .  S
O1058      H1122   0.990       .  S
O1059      C1079   1.286       .  A
O1060      C1081   1.288       .  A
O1061     Zr1071   2.419       .  S
O1061      C1080   1.282       .  A
O1062     Zr1070   2.426       .  S
O1062      C1081   1.283       .  A
O1063      C1080   1.285       .  A
O1064     Zr1072   2.399       .  S
O1064      C1079   1.278       .  A
O1065     Zr1070   2.402       .  S
O1065     Zr1072   2.380       .  S
O1066     Zr1071   2.388       .  S
O1066     Zr1072   2.387       .  S
O1066      H1101   0.965       .  S
O1067     Zr1070   2.408       .  S
O1067     Zr1087   2.389       .  S
O1067      H1104   0.963       .  S
O1068     Zr1071   2.379       .  S
O1068     Zr1087   2.390       .  S
Zr1069     O1094   2.439   1_556  S
Zr1069     O1088   2.446       .  S
Zr1069     O1096   2.436   1_556  S
Zr1069     O1084   2.424       .  S
Zr1069     O1075   2.391       .  S
Zr1069     O1076   2.411       .  S
Zr1069     O1077   2.371       .  S
Zr1069     O1078   2.384       .  S
Zr1070     O1089   2.437       .  S
Zr1070     O1082   2.434       .  S
Zr1070     O1083   2.447       .  S
Zr1070     O1076   2.394       .  S
Zr1070     O1077   2.382       .  S
Zr1071     O1073   2.438       .  S
Zr1071     O1095   2.439       .  S
Zr1071     O1097   2.402   1_556  S
Zr1071     O1075   2.384       .  S
Zr1071     O1078   2.394       .  S
Zr1072     O1098   2.437       .  S
Zr1072     O1099   2.437       .  S
Zr1072     O1074   2.438       .  S
Zr1072     O1075   2.384       .  S
Zr1072     O1076   2.386       .  S
O1073      H1110   0.990       .  S
O1074      H1105   0.990       .  S
O1074      H1119   0.990       .  S
O1076      H1102   0.965       .  S
O1077     Zr1087   2.373       .  S
O1078     Zr1087   2.383       .  S
O1078      H1103   0.965       .  S
C1079      C1744   1.469       .  S
C1080      C1864   1.485       .  S
C1081      C1369   1.493       .  S
O1082      H1118   0.990       .  S
O1083      C1085   1.289       .  A
O1084      C1085   1.281       .  A
C1085      C1360   1.492       .  S
O1086     Zr1087   2.440       .  S
O1086      H1115   0.990       .  S
Zr1087     O1090   2.436       .  S
Zr1087     O1091   2.441       .  S
Zr1087     O1092   2.420       .  S
O1088      C1093   1.286       .  A
O1089      H1106   0.990       .  S
O1089      H1121   0.990       .  S
O1090      H1107   0.990       .  S
O1091      H1111   0.990       .  S
O1091      H1120   0.990       .  S
O1092      C1093   1.282       .  A
C1093      C1432   1.485       .  S
O1094      H1113   0.992       .  S
O1094      H1117   0.988       .  S
O1095      H1109   0.990   1_556  S
O1095      H1116   0.990       .  S
O1096      C1100   1.285       .  A
O1097      C1100   1.279       .  A
O1098      H1108   0.990       .  S
O1099      H1112   0.990       .  S
C1100      C1381   1.481       .  S
Zr1123     O1124   2.445       .  S
Zr1123     O1125   2.459       .  S
Zr1123     O1126   2.431       .  S
Zr1123     O1129   2.432       .  S
Zr1123     O1131   2.380       .  S
Zr1123     O1132   2.386       .  S
Zr1123     O1133   2.424       .  S
Zr1123     O1134   2.403       .  S
O1124      H1180   0.990       .  S
O1124      H1188   0.991       .  S
O1125      C1145   1.285       .  A
O1126      C1147   1.283       .  A
O1127     Zr1137   2.436       .  S
O1127      C1146   1.287       .  A
O1128     Zr1136   2.425       .  S
O1128      C1147   1.282       .  A
O1129      C1146   1.282       .  A
O1130     Zr1138   2.379       .  S
O1130      C1145   1.275       .  A
O1131     Zr1136   2.398       .  S
O1131     Zr1138   2.381       .  S
O1132     Zr1137   2.395       .  S
O1132     Zr1138   2.385       .  S
O1132      H1167   0.966       .  S
O1133     Zr1136   2.399       .  S
O1133     Zr1153   2.394       .  S
O1133      H1170   0.963       .  S
O1134     Zr1137   2.379       .  S
O1134     Zr1153   2.387       .  S
Zr1135     O1160   2.443       .  S
Zr1135     O1154   2.445       .  S
Zr1135     O1162   2.454       .  S
Zr1135     O1150   2.441       .  S
Zr1135     O1141   2.394       .  S
Zr1135     O1142   2.417       .  S
Zr1135     O1143   2.378       .  S
Zr1135     O1144   2.386       .  S
Zr1136     O1155   2.437       .  S
Zr1136     O1148   2.435       .  S
Zr1136     O1149   2.421       .  S
Zr1136     O1142   2.400       .  S
Zr1136     O1143   2.392       .  S
Zr1137     O1139   2.435       .  S
Zr1137     O1161   2.440       .  S
Zr1137     O1163   2.429       .  S
Zr1137     O1141   2.385       .  S
Zr1137     O1144   2.404       .  S
Zr1138     O1164   2.434       .  S
Zr1138     O1165   2.435       .  S
Zr1138     O1140   2.438       .  S
Zr1138     O1141   2.376       .  S
Zr1138     O1142   2.379       .  S
O1139      H1176   0.990       .  S
O1140      H1171   0.990       .  S
O1140      H1185   0.990       .  S
O1142      H1168   0.964       .  S
O1143     Zr1153   2.374       .  S
O1144     Zr1153   2.387       .  S
O1144      H1169   0.965       .  S
C1145      C1684   1.480       .  S
C1146      C1828   1.466       .  S
C1147      C1384   1.483       .  S
O1148      H1184   0.990       .  S
O1149      C1151   1.283       .  A
O1150      C1151   1.285       .  A
C1151      C1345   1.475       .  S
O1152     Zr1153   2.438       .  S
O1152      H1181   0.991       .  S
Zr1153     O1156   2.436       .  S
Zr1153     O1157   2.441       .  S
Zr1153     O1158   2.413       .  S
O1154      C1159   1.284       .  A
O1155      H1172   0.990       .  S
O1155      H1187   0.990       .  S
O1156      H1173   0.990       .  S
O1157      H1177   0.990       .  S
O1157      H1186   0.989       .  S
O1158      C1159   1.278       .  A
C1159      C1408   1.482       .  S
O1160      H1179   0.991       .  S
O1160      H1183   0.990       .  S
O1161      H1175   0.990       .  S
O1161      H1182   0.990       .  S
O1162      C1166   1.290       .  A
O1163      C1166   1.284       .  A
O1164      H1174   0.990       .  S
O1165      H1178   0.990       .  S
C1166      C1372   1.491       .  S
Zr1189     O1190   2.439   1_556  S
Zr1189     O1191   2.409       .  S
Zr1189     O1192   2.440   1_556  S
Zr1189     O1195   2.433       .  S
Zr1189     O1197   2.384   1_455  S
Zr1189     O1198   2.386       .  S
Zr1189     O1199   2.400       .  S
Zr1189     O1200   2.399       .  S
O1190      H1246   0.990       .  S
O1190      H1254   0.990       .  S
O1191      C1211   1.280       .  A
O1192      C1213   1.286   1_455  A
O1193     Zr1203   2.432       .  S
O1193      C1212   1.285       .  A
O1194     Zr1202   2.431   1_554  S
O1194      C1213   1.285       .  A
O1195      C1212   1.286       .  A
O1196     Zr1204   2.435       .  S
O1196      C1211   1.284   1_655  A
O1197     Zr1202   2.394       .  S
O1197     Zr1204   2.375       .  S
O1198     Zr1203   2.390       .  S
O1198     Zr1204   2.366   1_455  S
O1198      H1233   0.966       .  S
O1199     Zr1202   2.414   1_455  S
O1199     Zr1219   2.400       .  S
O1199      H1236   0.967   1_556  S
O1200     Zr1203   2.385       .  S
O1200     Zr1219   2.386       .  S
Zr1201     O1226   2.441       .  S
Zr1201     O1220   2.459       .  S
Zr1201     O1228   2.454       .  S
Zr1201     O1216   2.408       .  S
Zr1201     O1207   2.402       .  S
Zr1201     O1208   2.422       .  S
Zr1201     O1209   2.365       .  S
Zr1201     O1210   2.387   1_655  S
Zr1202     O1221   2.438   1_556  S
Zr1202     O1214   2.436       .  S
Zr1202     O1215   2.463       .  S
Zr1202     O1208   2.408       .  S
Zr1202     O1209   2.368       .  S
Zr1203     O1205   2.434       .  S
Zr1203     O1227   2.438       .  S
Zr1203     O1229   2.418       .  S
Zr1203     O1207   2.399   1_455  S
Zr1203     O1210   2.398       .  S
Zr1204     O1230   2.436       .  S
Zr1204     O1231   2.435       .  S
Zr1204     O1206   2.438       .  S
Zr1204     O1207   2.399       .  S
Zr1204     O1208   2.394       .  S
O1205      H1242   0.990       .  S
O1206      H1237   0.990       .  S
O1206      H1251   0.990       .  S
O1208      H1234   0.965       .  S
O1209     Zr1219   2.366   1_655  S
O1210     Zr1219   2.383       .  S
O1210      H1235   0.965       .  S
C1211      C1417   1.480       .  S
C1212      C1357   1.488       .  S
C1213      C1333   1.493       .  S
O1214      H1250   0.990   1_556  S
O1215      C1217   1.289       .  A
O1216      C1217   1.280       .  A
C1217      C1480   1.493       .  S
O1218     Zr1219   2.438       .  S
O1218      H1247   0.990       .  S
Zr1219     O1222   2.434       .  S
Zr1219     O1223   2.439       .  S
Zr1219     O1224   2.405   1_455  S
O1220      C1225   1.288       .  A
O1221      H1238   0.990       .  S
O1221      H1253   0.990   1_554  S
O1222      H1239   0.990   1_556  S
O1223      H1243   0.990       .  S
O1223      H1252   0.990       .  S
O1224      C1225   1.279       .  A
C1225      C1540   1.487       .  S
O1226      H1245   0.990       .  S
O1226      H1249   0.991       .  S
O1227      H1241   0.991       .  S
O1227      H1248   0.990       .  S
O1228      C1232   1.288   1_655  A
O1229      C1232   1.282       .  A
O1230      H1240   0.990   1_655  S
O1231      H1244   0.990       .  S
C1232      C1324   1.491       .  S
Zr1255     O1256   2.438       .  S
Zr1255     O1257   2.412       .  S
Zr1255     O1258   2.438       .  S
Zr1255     O1261   2.438       .  S
Zr1255     O1263   2.385   1_655  S
Zr1255     O1264   2.384       .  S
Zr1255     O1265   2.398       .  S
Zr1255     O1266   2.401       .  S
O1256      H1312   0.990       .  S
O1256      H1320   0.990       .  S
O1257      C1277   1.281       .  A
O1258      C1279   1.286   1_655  A
O1259     Zr1269   2.422       .  S
O1259      C1278   1.282       .  A
O1260     Zr1268   2.442       .  S
O1260      C1279   1.287       .  A
O1261      C1278   1.287       .  A
O1262     Zr1270   2.417       .  S
O1262      C1277   1.282   1_455  A
O1263     Zr1268   2.385       .  S
O1263     Zr1270   2.376       .  S
O1264     Zr1269   2.389       .  S
O1264     Zr1270   2.371   1_655  S
O1264      H1299   0.966       .  S
O1265     Zr1268   2.403   1_655  S
O1265     Zr1285   2.393       .  S
O1265      H1302   0.966       .  S
O1266     Zr1269   2.388       .  S
O1266     Zr1285   2.391       .  S
Zr1267     O1292   2.437       .  S
Zr1267     O1286   2.430       .  S
Zr1267     O1294   2.449       .  S
Zr1267     O1282   2.409       .  S
Zr1267     O1273   2.387       .  S
Zr1267     O1274   2.411       .  S
Zr1267     O1275   2.378       .  S
Zr1267     O1276   2.386   1_455  S
Zr1268     O1287   2.437       .  S
Zr1268     O1280   2.434       .  S
Zr1268     O1281   2.440       .  S
Zr1268     O1274   2.405       .  S
Zr1268     O1275   2.373       .  S
Zr1269     O1271   2.435       .  S
Zr1269     O1293   2.437       .  S
Zr1269     O1295   2.415       .  S
Zr1269     O1273   2.384   1_655  S
Zr1269     O1276   2.393       .  S
Zr1270     O1296   2.436       .  S
Zr1270     O1297   2.436       .  S
Zr1270     O1272   2.437       .  S
Zr1270     O1273   2.389       .  S
Zr1270     O1274   2.389       .  S
O1271      H1308   0.990       .  S
O1272      H1303   0.990       .  S
O1272      H1317   0.990       .  S
O1274      H1300   0.965       .  S
O1275     Zr1285   2.366   1_455  S
O1276     Zr1285   2.386       .  S
O1276      H1301   0.965       .  S
C1277      C1516   1.467       .  S
C1278      C1468   1.477       .  S
C1279      C1321   1.493       .  S
O1280      H1316   0.990       .  S
O1281      C1283   1.286       .  A
O1282      C1283   1.281       .  A
C1283      C1348   1.487       .  S
O1284     Zr1285   2.437       .  S
O1284      H1313   0.990       .  S
Zr1285     O1288   2.436       .  S
Zr1285     O1289   2.437       .  S
Zr1285     O1290   2.409   1_655  S
O1286      C1291   1.282       .  A
O1287      H1304   0.990       .  S
O1287      H1319   0.990       .  S
O1288      H1305   0.990   1_655  S
O1289      H1309   0.990       .  S
O1289      H1318   0.990       .  S
O1290      C1291   1.280       .  A
C1291      C1396   1.474       .  S
O1292      H1311   0.990       .  S
O1292      H1315   0.990       .  S
O1293      H1307   0.990       .  S
O1293      H1314   0.990       .  S
O1294      C1298   1.287   1_455  A
O1295      C1298   1.282       .  A
O1296      H1306   0.990       .  S
O1297      H1310   0.990       .  S
C1298      C1336   1.494       .  S
C1321      C1322   1.408   1_455  A
C1321      C1326   1.413       .  A
C1322      C1323   1.404       .  A
C1322      H1327   1.083       .  S
C1323      C1324   1.410   1_655  A
C1323      O1328   1.371       .  S
C1324      C1325   1.408       .  A
C1325      C1326   1.402       .  A
C1325      H1329   1.084       .  S
C1326      O1330   1.372       .  S
O1328      H1332   0.992       .  S
O1330      H1331   0.991       .  S
C1333      C1334   1.409   1_655  A
C1333      C1338   1.413       .  A
C1334      C1335   1.406       .  A
C1334      H1339   1.083       .  S
C1335      C1336   1.413   1_455  A
C1335      O1340   1.371       .  S
C1336      C1337   1.408       .  A
C1337      C1338   1.397       .  A
C1337      H1341   1.083       .  S
C1338      O1342   1.372       .  S
O1340      H1344   0.992       .  S
O1342      H1343   0.992       .  S
C1345      C1346   1.405       .  A
C1345      C1350   1.406       .  A
C1346      C1347   1.400       .  A
C1346      H1351   1.084       .  S
C1347      C1348   1.412       .  A
C1347      O1352   1.371       .  S
C1348      C1349   1.410       .  A
C1349      C1350   1.394       .  A
C1349      H1353   1.083       .  S
C1350      O1354   1.372       .  S
O1352      H1356   0.992       .  S
O1354      H1355   0.992       .  S
C1357      C1358   1.404       .  A
C1357      C1362   1.413       .  A
C1358      C1359   1.401       .  A
C1358      H1363   1.084       .  S
C1359      C1360   1.418       .  A
C1359      O1364   1.371       .  S
C1360      C1361   1.405       .  A
C1361      C1362   1.398       .  A
C1361      H1365   1.083       .  S
C1362      O1366   1.371       .  S
O1364      H1368   0.992       .  S
O1366      H1367   0.992       .  S
C1369      C1370   1.408       .  A
C1369      C1374   1.414       .  A
C1370      C1371   1.402       .  A
C1370      H1375   1.083       .  S
C1371      C1372   1.414       .  A
C1371      O1376   1.372       .  S
C1372      C1373   1.406       .  A
C1373      C1374   1.401       .  A
C1373      H1377   1.083       .  S
C1374      O1378   1.372       .  S
O1376      H1380   0.992       .  S
O1378      H1379   0.992       .  S
C1381      C1382   1.405       .  A
C1381      C1386   1.412       .  A
C1382      C1383   1.399       .  A
C1382      H1387   1.083       .  S
C1383      C1384   1.412       .  A
C1383      O1388   1.372       .  S
C1384      C1385   1.406       .  A
C1385      C1386   1.393       .  A
C1385      H1389   1.083       .  S
C1386      O1390   1.373       .  S
O1388      H1392   0.992       .  S
O1390      H1391   0.992       .  S
C1393      C1394   1.402       .  A
C1393      C1398   1.416       .  A
C1394      C1395   1.390       .  A
C1394      H1399   1.084       .  S
C1395      C1396   1.413       .  A
C1395      O1400   1.372       .  S
C1396      C1397   1.401       .  A
C1397      C1398   1.399       .  A
C1397      H1401   1.083       .  S
C1398      O1402   1.371       .  S
O1400      H1404   0.992       .  S
O1402      H1403   0.992       .  S
C1405      C1406   1.404       .  A
C1405      C1410   1.414       .  A
C1406      C1407   1.403       .  A
C1406      H1411   1.084       .  S
C1407      C1408   1.413       .  A
C1407      O1412   1.372       .  S
C1408      C1409   1.401       .  A
C1409      C1410   1.399       .  A
C1409      H1413   1.084       .  S
C1410      O1414   1.372       .  S
O1412      H1416   0.992       .  S
O1414      H1415   0.992       .  S
C1417      C1418   1.409       .  A
C1417      C1422   1.410       .  A
C1418      C1419   1.400       .  A
C1418      H1423   1.084   1_556  S
C1419      C1420   1.405       .  A
C1419      O1424   1.372   1_556  S
C1420      C1421   1.404       .  A
C1421      C1422   1.394       .  A
C1421      H1425   1.084       .  S
C1422      O1426   1.372       .  S
O1424      H1428   0.992       .  S
O1426      H1427   0.992   1_455  S
C1429      C1430   1.406       .  A
C1429      C1434   1.405       .  A
C1430      C1431   1.403       .  A
C1430      H1435   1.084   1_556  S
C1431      C1432   1.409       .  A
C1431      O1436   1.372   1_556  S
C1432      C1433   1.409       .  A
C1433      C1434   1.402       .  A
C1433      H1437   1.084       .  S
C1434      O1438   1.372       .  S
O1436      H1440   0.992       .  S
O1438      H1439   0.992       .  S
C1441      C1442   1.403       .  A
C1441      C1446   1.413       .  A
C1442      C1443   1.406       .  A
C1442      H1447   1.084       .  S
C1443      C1444   1.418       .  A
C1443      O1448   1.371       .  S
C1444      C1445   1.403       .  A
C1445      C1446   1.399       .  A
C1445      H1449   1.084       .  S
C1446      O1450   1.372       .  S
O1448      H1452   0.992       .  S
O1450      H1451   0.992       .  S
C1453      C1454   1.405       .  A
C1453      C1458   1.415       .  A
C1454      C1455   1.393       .  A
C1454      H1459   1.083       .  S
C1455      C1456   1.413       .  A
C1455      O1460   1.370       .  S
C1456      C1457   1.409       .  A
C1457      C1458   1.409       .  A
C1457      H1461   1.083       .  S
C1458      O1462   1.371       .  S
O1460      H1464   0.992       .  S
O1462      H1463   0.992       .  S
C1465      C1466   1.404       .  A
C1465      C1470   1.414       .  A
C1466      C1467   1.398       .  A
C1466      H1471   1.084       .  S
C1467      C1468   1.412       .  A
C1467      O1472   1.371       .  S
C1468      C1469   1.401       .  A
C1469      C1470   1.399       .  A
C1469      H1473   1.084       .  S
C1470      O1474   1.372       .  S
O1472      H1476   0.992       .  S
O1474      H1475   0.992       .  S
C1477      C1478   1.409       .  A
C1477      C1482   1.406       .  A
C1478      C1479   1.404       .  A
C1478      H1483   1.084       .  S
C1479      C1480   1.411       .  A
C1479      O1484   1.371       .  S
C1480      C1481   1.411       .  A
C1481      C1482   1.396       .  A
C1481      H1485   1.083       .  S
C1482      O1486   1.373       .  S
O1484      H1488   0.992       .  S
O1486      H1487   0.992       .  S
C1489      C1490   1.407       .  A
C1489      C1494   1.410       .  A
C1490      C1491   1.397       .  A
C1490      H1495   1.083       .  S
C1491      C1492   1.411       .  A
C1491      O1496   1.372       .  S
C1492      C1493   1.409       .  A
C1493      C1494   1.403       .  A
C1493      H1497   1.083       .  S
C1494      O1498   1.372       .  S
O1496      H1500   0.992       .  S
O1498      H1499   0.992       .  S
C1501      C1502   1.409       .  A
C1501      C1506   1.414       .  A
C1502      C1503   1.402       .  A
C1502      H1507   1.083       .  S
C1503      C1504   1.414       .  A
C1503      O1508   1.371       .  S
C1504      C1505   1.408       .  A
C1505      C1506   1.402       .  A
C1505      H1509   1.083       .  S
C1506      O1510   1.371       .  S
O1508      H1512   0.992       .  S
O1510      H1511   0.992       .  S
C1513      C1514   1.403       .  A
C1513      C1518   1.410       .  A
C1514      C1515   1.390       .  A
C1514      H1519   1.084       .  S
C1515      C1516   1.407       .  A
C1515      O1520   1.372       .  S
C1516      C1517   1.404       .  A
C1517      C1518   1.400       .  A
C1517      H1521   1.084       .  S
C1518      O1522   1.372       .  S
O1520      H1524   0.992       .  S
O1522      H1523   0.992       .  S
C1525      C1526   1.403       .  A
C1525      C1530   1.410       .  A
C1526      C1527   1.401       .  A
C1526      H1531   1.084       .  S
C1527      C1528   1.412       .  A
C1527      O1532   1.372       .  S
C1528      C1529   1.404       .  A
C1529      C1530   1.399       .  A
C1529      H1533   1.084       .  S
C1530      O1534   1.372       .  S
O1532      H1536   0.992       .  S
O1534      H1535   0.992       .  S
C1537      C1538   1.399       .  A
C1537      C1542   1.416       .  A
C1538      C1539   1.393       .  A
C1538      H1543   1.084       .  S
C1539      C1540   1.418       .  A
C1539      O1544   1.372       .  S
C1540      C1541   1.405       .  A
C1541      C1542   1.403       .  A
C1541      H1545   1.083       .  S
C1542      O1546   1.372       .  S
O1544      H1548   0.992       .  S
O1546      H1547   0.992       .  S
C1549      C1550   1.406       .  A
C1549      C1554   1.409       .  A
C1550      C1551   1.398       .  A
C1550      H1555   1.084       .  S
C1551      C1552   1.408       .  A
C1551      O1556   1.372       .  S
C1552      C1553   1.407       .  A
C1553      C1554   1.402       .  A
C1553      H1557   1.084       .  S
C1554      O1558   1.372       .  S
O1556      H1560   0.992       .  S
O1558      H1559   0.992       .  S
C1561      C1562   1.407       .  A
C1561      C1566   1.416       .  A
C1562      C1563   1.408       .  A
C1562      H1567   1.083       .  S
C1563      C1564   1.414       .  A
C1563      O1568   1.372       .  S
C1564      C1565   1.405       .  A
C1565      C1566   1.401       .  A
C1565      H1569   1.083       .  S
C1566      O1570   1.371       .  S
O1568      H1572   0.992       .  S
O1570      H1571   0.992       .  S
C1573      C1574   1.403       .  A
C1573      C1578   1.413       .  A
C1574      C1575   1.401       .  A
C1574      H1579   1.084       .  S
C1575      C1576   1.415       .  A
C1575      O1580   1.370       .  S
C1576      C1577   1.410       .  A
C1577      C1578   1.408       .  A
C1577      H1581   1.083       .  S
C1578      O1582   1.372       .  S
O1580      H1584   0.992       .  S
O1582      H1583   0.992       .  S
C1585      C1586   1.399       .  A
C1585      C1590   1.408       .  A
C1586      C1587   1.399       .  A
C1586      H1591   1.084       .  S
C1587      C1588   1.410       .  A
C1587      O1592   1.372       .  S
C1588      C1589   1.399       .  A
C1589      C1590   1.397       .  A
C1589      H1593   1.084       .  S
C1590      O1594   1.372       .  S
O1592      H1596   0.992       .  S
O1594      H1595   0.992   1_545  S
C1597      C1598   1.402       .  A
C1597      C1602   1.404       .  A
C1598      C1599   1.390       .  A
C1598      H1603   1.084       .  S
C1599      C1600   1.413       .  A
C1599      O1604   1.373       .  S
C1600      C1601   1.411       .  A
C1601      C1602   1.400       .  A
C1601      H1605   1.083       .  S
C1602      O1606   1.371       .  S
O1604      H1608   0.992       .  S
O1606      H1607   0.991       .  S
C1609      C1610   1.404       .  A
C1609      C1614   1.404   1_556  A
C1610      C1611   1.394       .  A
C1610      H1615   1.084       .  S
C1611      C1612   1.412       .  A
C1611      O1616   1.373       .  S
C1612      C1613   1.410   1_556  A
C1613      C1614   1.402       .  A
C1613      H1617   1.083       .  S
C1614      O1618   1.371       .  S
O1616      H1620   0.992       .  S
O1618      H1619   0.992       .  S
C1621      C1622   1.408       .  A
C1621      C1626   1.414       .  A
C1622      C1623   1.401       .  A
C1622      H1627   1.083       .  S
C1623      C1624   1.413       .  A
C1623      O1628   1.371       .  S
C1624      C1625   1.406       .  A
C1625      C1626   1.399       .  A
C1625      H1629   1.083       .  S
C1626      O1630   1.372       .  S
O1628      H1632   0.992       .  S
O1630      H1631   0.992       .  S
C1633      C1634   1.407       .  A
C1633      C1638   1.411       .  A
C1634      C1635   1.396       .  A
C1634      H1639   1.082       .  S
C1635      C1636   1.411       .  A
C1635      O1640   1.372       .  S
C1636      C1637   1.408       .  A
C1637      C1638   1.403       .  A
C1637      H1641   1.083       .  S
C1638      O1642   1.371       .  S
O1640      H1644   0.992       .  S
O1642      H1643   0.992       .  S
C1645      C1646   1.399       .  A
C1645      C1650   1.410       .  A
C1646      C1647   1.397   1_556  A
C1646      H1651   1.084       .  S
C1647      C1648   1.411       .  A
C1647      O1652   1.373       .  S
C1648      C1649   1.405       .  A
C1649      C1650   1.405   1_554  A
C1649      H1653   1.084       .  S
C1650      O1654   1.371       .  S
O1652      H1656   0.992   1_554  S
O1654      H1655   0.992   1_556  S
C1657      C1658   1.400       .  A
C1657      C1662   1.410       .  A
C1658      C1659   1.405       .  A
C1658      H1663   1.084       .  S
C1659      C1660   1.419       .  A
C1659      O1664   1.371       .  S
C1660      C1661   1.400       .  A
C1661      C1662   1.393       .  A
C1661      H1665   1.084       .  S
C1662      O1666   1.373       .  S
O1664      H1668   0.992       .  S
O1666      H1667   0.992       .  S
C1669      C1670   1.403       .  A
C1669      C1674   1.406       .  A
C1670      C1671   1.401       .  A
C1670      H1675   1.084       .  S
C1671      C1672   1.410       .  A
C1671      O1676   1.372       .  S
C1672      C1673   1.405       .  A
C1673      C1674   1.395       .  A
C1673      H1677   1.083       .  S
C1674      O1678   1.372       .  S
O1676      H1680   0.992       .  S
O1678      H1679   0.992       .  S
C1681      C1682   1.406       .  A
C1681      C1686   1.404       .  A
C1682      C1683   1.406       .  A
C1682      H1687   1.084       .  S
C1683      C1684   1.410       .  A
C1683      O1688   1.371       .  S
C1684      C1685   1.406       .  A
C1685      C1686   1.390       .  A
C1685      H1689   1.084       .  S
C1686      O1690   1.373       .  S
O1688      H1692   0.992       .  S
O1690      H1691   0.992       .  S
C1693      C1694   1.396       .  A
C1693      C1698   1.407       .  A
C1694      C1695   1.395       .  A
C1694      H1699   1.084       .  S
C1695      C1696   1.416       .  A
C1695      O1700   1.371       .  S
C1696      C1697   1.406       .  A
C1697      C1698   1.402       .  A
C1697      H1701   1.083       .  S
C1698      O1702   1.372       .  S
O1700      H1704   0.992       .  S
O1702      H1703   0.992       .  S
C1705      C1706   1.406       .  A
C1705      C1710   1.407       .  A
C1706      C1707   1.393       .  A
C1706      H1711   1.084       .  S
C1707      C1708   1.405       .  A
C1707      O1712   1.373       .  S
C1708      C1709   1.404       .  A
C1709      C1710   1.401       .  A
C1709      H1713   1.084       .  S
C1710      O1714   1.373       .  S
O1712      H1716   0.992       .  S
O1714      H1715   0.992       .  S
C1717      C1718   1.407       .  A
C1717      C1722   1.416       .  A
C1718      C1719   1.403       .  A
C1718      H1723   1.083       .  S
C1719      C1720   1.412       .  A
C1719      O1724   1.371       .  S
C1720      C1721   1.403       .  A
C1721      C1722   1.398       .  A
C1721      H1725   1.084       .  S
C1722      O1726   1.373       .  S
O1724      H1728   0.992       .  S
O1726      H1727   0.992       .  S
C1729      C1730   1.408       .  A
C1729      C1734   1.410       .  A
C1730      C1731   1.401       .  A
C1730      H1735   1.083       .  S
C1731      C1732   1.412       .  A
C1731      O1736   1.372       .  S
C1732      C1733   1.410       .  A
C1733      C1734   1.402       .  A
C1733      H1737   1.083       .  S
C1734      O1738   1.371       .  S
O1736      H1740   0.992       .  S
O1738      H1739   0.992       .  S
C1741      C1742   1.403       .  A
C1741      C1746   1.417       .  A
C1742      C1743   1.395       .  A
C1742      H1747   1.084       .  S
C1743      C1744   1.406       .  A
C1743      O1748   1.373       .  S
C1744      C1745   1.400       .  A
C1745      C1746   1.406       .  A
C1745      H1749   1.084       .  S
C1746      O1750   1.372       .  S
O1748      H1752   0.992       .  S
O1750      H1751   0.992       .  S
C1753      C1754   1.408       .  A
C1753      C1758   1.410       .  A
C1754      C1755   1.404       .  A
C1754      H1759   1.084       .  S
C1755      C1756   1.408       .  A
C1755      O1760   1.371       .  S
C1756      C1757   1.401       .  A
C1757      C1758   1.391       .  A
C1757      H1761   1.084       .  S
C1758      O1762   1.372       .  S
O1760      H1764   0.992       .  S
O1762      H1763   0.992       .  S
C1765      C1766   1.399       .  A
C1765      C1770   1.411       .  A
C1766      C1767   1.390       .  A
C1766      H1771   1.084       .  S
C1767      C1768   1.415       .  A
C1767      O1772   1.372       .  S
C1768      C1769   1.404       .  A
C1769      C1770   1.400       .  A
C1769      H1773   1.083       .  S
C1770      O1774   1.371       .  S
O1772      H1776   0.992   1_565  S
O1774      H1775   0.992       .  S
C1777      C1778   1.406       .  A
C1777      C1782   1.412       .  A
C1778      C1779   1.404       .  A
C1778      H1783   1.084       .  S
C1779      C1780   1.414       .  A
C1779      O1784   1.372       .  S
C1780      C1781   1.403       .  A
C1781      C1782   1.394       .  A
C1781      H1785   1.084       .  S
C1782      O1786   1.371       .  S
O1784      H1788   0.992       .  S
O1786      H1787   0.992       .  S
C1789      C1790   1.404       .  A
C1789      C1794   1.410       .  A
C1790      C1791   1.390       .  A
C1790      H1795   1.083       .  S
C1791      C1792   1.408       .  A
C1791      O1796   1.373   1_556  S
C1792      C1793   1.408       .  A
C1793      C1794   1.402       .  A
C1793      H1797   1.083       .  S
C1794      O1798   1.372       .  S
O1796      H1800   0.992       .  S
O1798      H1799   0.992       .  S
C1801      C1802   1.401       .  A
C1801      C1806   1.407       .  A
C1802      C1803   1.396       .  A
C1802      H1807   1.083       .  S
C1803      C1804   1.411       .  A
C1803      O1808   1.372       .  S
C1804      C1805   1.404   1_545  A
C1805      C1806   1.388   1_565  A
C1805      H1809   1.083       .  S
C1806      O1810   1.374       .  S
O1808      H1812   0.992       .  S
O1810      H1811   0.992   1_545  S
C1813      C1814   1.399   1_545  A
C1813      C1818   1.410       .  A
C1814      C1815   1.394       .  A
C1814      H1819   1.084       .  S
C1815      C1816   1.414   1_565  A
C1815      O1820   1.372       .  S
C1816      C1817   1.401       .  A
C1817      C1818   1.395       .  A
C1817      H1821   1.084       .  S
C1818      O1822   1.372       .  S
O1820      H1824   0.992       .  S
O1822      H1823   0.991       .  S
C1825      C1826   1.403       .  A
C1825      C1830   1.413       .  A
C1826      C1827   1.389       .  A
C1826      H1831   1.084       .  S
C1827      C1828   1.403       .  A
C1827      O1832   1.373       .  S
C1828      C1829   1.404       .  A
C1829      C1830   1.407       .  A
C1829      H1833   1.084       .  S
C1830      O1834   1.371       .  S
O1832      H1836   0.992       .  S
O1834      H1835   0.992       .  S
C1837      C1838   1.416       .  A
C1837      C1842   1.408       .  A
C1838      C1839   1.402       .  A
C1838      H1843   1.083       .  S
C1839      C1840   1.400       .  A
C1839      O1844   1.371       .  S
C1840      C1841   1.405       .  A
C1841      C1842   1.392       .  A
C1841      H1845   1.084       .  S
C1842      O1846   1.373       .  S
O1844      H1848   0.992       .  S
O1846      H1847   0.992       .  S
C1849      C1850   1.410       .  A
C1849      C1854   1.407       .  A
C1850      C1851   1.400       .  A
C1850      H1855   1.083       .  S
C1851      C1852   1.401       .  A
C1851      O1856   1.372       .  S
C1852      C1853   1.403       .  A
C1853      C1854   1.397       .  A
C1853      H1857   1.084       .  S
C1854      O1858   1.372       .  S
O1856      H1860   0.992       .  S
O1858      H1859   0.992       .  S
C1861      C1862   1.401       .  A
C1861      C1866   1.404       .  A
C1862      C1863   1.392       .  A
C1862      H1867   1.085       .  S
C1863      C1864   1.413       .  A
C1863      O1868   1.372       .  S
C1864      C1865   1.410       .  A
C1865      C1866   1.404       .  A
C1865      H1869   1.083       .  S
C1866      O1870   1.372       .  S
O1868      H1872   0.992       .  S
O1870      H1871   0.992       .  S
C1873      C1874   1.412       .  A
C1873      C1878   1.406       .  A
C1874      C1875   1.402       .  A
C1874      H1879   1.083       .  S
C1875      C1876   1.403       .  A
C1875      O1880   1.371   1_556  S
C1876      C1877   1.406       .  A
C1877      C1878   1.394       .  A
C1877      H1881   1.084       .  S
C1878      O1882   1.373       .  S
O1880      H1884   0.992       .  S
O1882      H1883   0.992       .  S
C1885      C1886   1.409       .  A
C1885      C1890   1.412       .  A
C1886      C1887   1.401       .  A
C1886      H1891   1.083       .  S
C1887      C1888   1.411       .  A
C1887      O1892   1.371       .  S
C1888      C1889   1.409       .  A
C1889      C1890   1.399       .  A
C1889      H1893   1.083       .  S
C1890      O1894   1.372       .  S
O1892      H1896   0.992       .  S
O1894      H1895   0.992       .  S
C1897      C1898   1.409       .  A
C1897      C1902   1.411       .  A
C1898      C1899   1.401       .  A
C1898      H1903   1.083       .  S
C1899      C1900   1.412       .  A
C1899      O1904   1.372       .  S
C1900      C1901   1.408       .  A
C1901      C1902   1.396       .  A
C1901      H1905   1.083       .  S
C1902      O1906   1.372       .  S
O1904      H1908   0.992       .  S
O1906      H1907   0.992       .  S
C1909      C1910   1.411       .  A
C1909      C1914   1.408       .  A
C1910      C1911   1.403       .  A
C1910      H1915   1.083       .  S
C1911      C1912   1.403       .  A
C1911      O1916   1.371       .  S
C1912      C1913   1.401       .  A
C1913      C1914   1.391       .  A
C1913      H1917   1.085       .  S
C1914      O1918   1.373       .  S
O1916      H1920   0.992       .  S
O1918      H1919   0.992       .  S
C1921      C1922   1.396       .  A
C1921      C1926   1.410       .  A
C1922      C1923   1.393       .  A
C1922      H1927   1.084       .  S
C1923      C1924   1.417       .  A
C1923      O1928   1.372       .  S
C1924      C1925   1.408       .  A
C1925      C1926   1.403       .  A
C1925      H1929   1.083       .  S
C1926      O1930   1.372       .  S
O1928      H1932   0.992       .  S
O1930      H1931   0.992       .  S
C1933      C1934   1.403       .  A
C1933      C1938   1.419       .  A
C1934      C1935   1.402       .  A
C1934      H1939   1.083       .  S
C1935      C1936   1.414       .  A
C1935      O1940   1.372       .  S
C1936      C1937   1.399       .  A
C1937      C1938   1.400       .  A
C1937      H1941   1.084       .  S
C1938      O1942   1.372       .  S
O1940      H1944   0.992       .  S
O1942      H1943   0.992       .  S
C1945      C1946   1.401       .  A
C1945      C1950   1.411       .  A
C1946      C1947   1.405       .  A
C1946      H1951   1.084       .  S
C1947      C1948   1.418       .  A
C1947      O1952   1.372       .  S
C1948      C1949   1.403       .  A
C1949      C1950   1.398       .  A
C1949      H1953   1.083       .  S
C1950      O1954   1.372       .  S
O1952      H1956   0.992       .  S
O1954      H1955   0.992       .  S
C1957      C1958   1.409       .  A
C1957      C1962   1.415       .  A
C1958      C1959   1.392       .  A
C1958      H1963   1.084       .  S
C1959      C1960   1.402       .  A
C1959      O1964   1.373       .  S
C1960      C1961   1.405       .  A
C1961      C1962   1.410       .  A
C1961      H1965   1.083       .  S
C1962      O1966   1.371       .  S
O1964      H1968   0.992       .  S
O1966      H1967   0.992       .  S
C1969      C1970   1.402       .  A
C1969      C1974   1.402   1_556  A
C1970      C1971   1.395       .  A
C1970      H1975   1.085       .  S
C1971      C1972   1.410       .  A
C1971      O1976   1.373       .  S
C1972      C1973   1.413   1_556  A
C1973      C1974   1.405       .  A
C1973      H1977   1.083       .  S
C1974      O1978   1.371       .  S
O1976      H1980   0.992       .  S
O1978      H1979   0.992       .  S
C1981      C1982   1.401       .  A
C1981      C1986   1.415       .  A
C1982      C1983   1.394       .  A
C1982      H1987   1.084   1_556  S
C1983      C1984   1.417       .  A
C1983      O1988   1.372   1_556  S
C1984      C1985   1.403       .  A
C1985      C1986   1.399       .  A
C1985      H1989   1.083       .  S
C1986      O1990   1.371       .  S
O1988      H1992   0.992       .  S
O1990      H1991   0.992       .  S
C1993      C1994   1.408       .  A
C1993      C1998   1.409       .  A
C1994      C1995   1.395       .  A
C1994      H1999   1.083       .  S
C1995      C1996   1.405       .  A
C1995      O2000   1.372       .  S
C1996      C1997   1.406       .  A
C1997      C1998   1.398       .  A
C1997      H2001   1.084       .  S
C1998      O2002   1.372       .  S
O2000      H2004   0.991   1_556  S
O2002      H2003   0.992       .  S
C2005      C2006   1.409       .  A
C2005      C2010   1.412       .  A
C2006      C2007   1.401       .  A
C2006      H2011   1.083       .  S
C2007      C2008   1.413       .  A
C2007      O2012   1.372       .  S
C2008      C2009   1.409       .  A
C2009      C2010   1.401       .  A
C2009      H2013   1.083       .  S
C2010      O2014   1.371       .  S
O2012      H2016   0.992       .  S
O2014      H2015   0.992       .  S
C2017      C2018   1.408       .  A
C2017      C2022   1.414       .  A
C2018      C2019   1.403       .  A
C2018      H2023   1.083       .  S
C2019      C2020   1.413       .  A
C2019      O2024   1.372       .  S
C2020      C2021   1.409       .  A
C2021      C2022   1.401       .  A
C2021      H2025   1.083       .  S
C2022      O2026   1.372       .  S
O2024      H2028   0.992       .  S
O2026      H2027   0.992       .  S
C2029      C2030   1.397   1_556  A
C2029      C2034   1.407       .  A
C2030      C2031   1.399       .  A
C2030      H2035   1.084       .  S
C2031      C2032   1.417   1_554  A
C2031      O2036   1.372       .  S
C2032      C2033   1.401       .  A
C2033      C2034   1.390       .  A
C2033      H2037   1.084       .  S
C2034      O2038   1.372       .  S
O2036      H2040   0.992       .  S
O2038      H2039   0.992   1_655  S
