geometry optimzed in LAMMPS
_audit_creation_date              2020-12-01 
_audit_creation_method            'lammps2cif' 
_symmetry_space_group_name_H-M    'P1' 
_symmetry_Int_Tables_number       1 
_symmetry_cell_setting            triclinic 
loop_ 
_symmetry_equiv_pos_as_xyz 
  x,y,z 
_cell_length_a                    32.75620089 
_cell_length_b                    32.491024525098645 
_cell_length_c                    25.49400047333118 
_cell_angle_alpha                 93.13922644107738 
_cell_angle_beta                  90.12761812531842 
_cell_angle_gamma                 89.9905161633737 
loop_ 
_atom_site_label 
_atom_site_type_symbol 
_atom_site_fract_x 
_atom_site_fract_y 
_atom_site_fract_z 
_atom_site_charge 
C1          C  0.15625573  0.00817753  0.05410975     0.88000
C2          C  0.12745833  0.04373757  0.04368760    -0.52200
C3          C  0.10435349  0.03685651  0.49950796     0.10900
C4          C  0.11178304  0.49486041  0.47002912     0.21900
C5          C  0.12861014  0.47065718  0.05607264    -0.53000
C6          C  0.10463918  0.46310330  0.51229123     0.11000
C7          C  0.18138547  0.00105995  0.00407540    -0.52500
C8          C  0.15825038  0.99432008  0.45995860     0.11600
H9          H  0.12472937  0.07136599  0.06944828     0.16100
H10         H  0.09301783  0.48985742  0.43395963     0.01800
H11         H  0.12725700  0.45327056  0.09106812     0.16400
H12         H  0.21453022  0.00250995  0.50333676     0.16200
O13         O  0.24154754  0.46403552  0.30433761    -0.71400
O14         O  0.32832120  0.47544077  0.19509437    -0.72400
O15         O  0.32843354  0.46382187  0.30508929    -0.61000
O16         O  0.24254545  0.47566449  0.19430909    -0.69500
O17         O  0.24254460  0.04369804  0.20956824    -0.69000
O18         O  0.32855387  0.03180429  0.32052763    -0.60300
O19         O  0.32856398  0.04347735  0.21033765    -0.72800
O20         O  0.24166964  0.03201536  0.31978081    -0.71500
Cu21       Cu  0.28520662  0.46735921  0.24924898     1.04600
Cu22       Cu  0.28533606  0.04014763  0.26578901     1.04300
C23         C  0.22808719  0.49634317  0.32930647     0.94800
C24         C  0.34122442  0.01114158  0.18471059     0.93900
C25         C  0.34189280  0.99606847  0.33026491     0.86000
C26         C  0.22989842  0.51143026  0.18371169     0.92300
C27         C  0.41464926  0.50769929  0.05538561     0.88000
C28         C  0.44247271  0.47027906  0.05711587    -0.52200
C29         C  0.46608222  0.46282661  0.51311268     0.10900
C30         C  0.45841835  0.99453946  0.47092576     0.21900
C31         C  0.44319744  0.04336096  0.04470960    -0.53000
C32         C  0.46592405  0.03654867  0.50032898     0.11000
C33         C  0.38910336  0.50048348  0.00556397    -0.52500
C34         C  0.41188350  0.49382390  0.46125895     0.11600
H35         H  0.44421479  0.45289659  0.09210078     0.16100
H36         H  0.47687602  0.98961592  0.43468783     0.01800
H37         H  0.44602742  0.07101692  0.07042207     0.16400
H38         H  0.35594960  0.50184272  0.50509687     0.16200
C39         C  0.03455655  0.11552204  0.43805856     0.88000
C40         C  0.07182755  0.08710112  0.44155905    -0.52200
C41         C  0.07185199  0.06535290  0.98588759     0.10900
C42         C  0.03515155  0.07376917  0.02204478     0.21900
C43         C  0.49751357  0.08690497  0.44200047    -0.53000
C44         C  0.49811467  0.06516921  0.98632533     0.11000
C45         C  0.03475051  0.14248493  0.48943949    -0.52500
C46         C  0.03505902  0.12039948  0.03325676     0.11600
H47         H  0.09596188  0.08471476  0.41240380     0.16100
H48         H  0.03539363  0.05583085  0.05796801     0.01800
H49         H  0.47306889  0.08439164  0.41314585     0.16400
H50         H  0.03461607  0.17597771  0.99101217     0.16200
O51         O  0.50087154  0.29594830  0.29875946    -0.71400
O52         O  0.50104908  0.20164985  0.18959578    -0.72400
O53         O  0.50051008  0.20792520  0.30117046    -0.61000
O54         O  0.50139399  0.28752910  0.18683899    -0.69500
O55         O  0.06931847  0.28728999  0.18759369    -0.69000
O56         O  0.06838006  0.20771693  0.30185484    -0.60300
O57         O  0.06894011  0.20141730  0.19031471    -0.72800
O58         O  0.06868092  0.29569558  0.29947684    -0.71500
Cu59       Cu  0.49855370  0.24833033  0.24438966     1.04600
Cu60       Cu  0.07121805  0.24807928  0.24516591     1.04300
C61         C  0.03475536  0.31087388  0.31590321     0.94800
C62         C  0.03503344  0.18789850  0.17161952     0.93900
C63         C  0.03432863  0.19468626  0.31861435     0.86000
C64         C  0.03550027  0.29845815  0.16801545     0.92300
C65         C  0.03572126  0.37176629  0.04327728     0.88000
C66         C  0.07263389  0.40000854  0.04619433    -0.52200
C67         C  0.07289278  0.42967702  0.51004071     0.10900
C68         C  0.03522394  0.42661643  0.47261384     0.21900
C69         C  0.99875220  0.39990873  0.04666376    -0.53000
C70         C  0.99797205  0.42955989  0.51051935     0.11000
C71         C  0.03543636  0.35265019  0.98773422    -0.52500
C72         C  0.03517005  0.38095441  0.45025017     0.11600
H73         H  0.09629281  0.39624649  0.07529691     0.16100
H74         H  0.03501527  0.44963360  0.44215739     0.01800
H75         H  0.47542720  0.39607833  0.07605150     0.16400
H76         H  0.03543062  0.31956347  0.47868013     0.16200
C77         C  0.03472134  0.34394064  0.35612019    -0.11800
C78         C  0.03485864  0.36637549  0.39562220    -0.13300
C79         C  0.03593092  0.34271097  0.08490446    -0.11800
C80         C  0.03582553  0.32249352  0.12291906    -0.13300
C81         C  0.03421750  0.14058041  0.39201217    -0.11800
C82         C  0.03410986  0.16460478  0.35766215    -0.13300
C83         C  0.03513368  0.15911477  0.12702113    -0.11800
C84         C  0.03515103  0.13966204  0.08543766    -0.13300
C85         C  0.37138349  0.49217543  0.37156694    -0.11800
C86         C  0.39267251  0.49117549  0.41019146    -0.13300
C87         C  0.36907890  0.51471879  0.14194692    -0.11800
C88         C  0.39022310  0.51399251  0.10329807    -0.13300
C89         C  0.17710464  0.99164162  0.40876457    -0.11800
C90         C  0.19838114  0.99257700  0.37023230    -0.13300
C91         C  0.20226138  0.01514894  0.14057043    -0.11800
C92         C  0.18105176  0.01450757  0.10185427    -0.13300
C93         C  0.15625570  0.00817752  0.55410977     0.88000
C94         C  0.12745835  0.04373759  0.54368767    -0.52200
C95         C  0.10435349  0.03685645  0.99950789     0.10900
C96         C  0.11178305  0.49486027  0.97002924     0.21900
C97         C  0.12861009  0.47065712  0.55607268    -0.53000
C98         C  0.10463920  0.46310323  0.01229129     0.11000
C99         C  0.18138549  0.00106000  0.50407551    -0.52500
C100        C  0.15825029  0.99432018  0.95995850     0.11600
H101        H  0.12472977  0.07136589  0.56944812     0.16100
H102        H  0.09301762  0.48985698  0.93395957     0.01800
H103        H  0.12725676  0.45327077  0.59106807     0.16400
H104        H  0.21453001  0.00250992  0.00333657     0.16200
O105        O  0.24154759  0.46403545  0.80433762    -0.71400
O106        O  0.32832125  0.47544070  0.69509440    -0.72400
O107        O  0.32843365  0.46382185  0.80508938    -0.61000
O108        O  0.24254555  0.47566444  0.69430910    -0.69500
O109        O  0.24254466  0.04369813  0.70956830    -0.69000
O110        O  0.32855394  0.03180417  0.82052752    -0.60300
O111        O  0.32856399  0.04347742  0.71033750    -0.72800
O112        O  0.24166968  0.03201543  0.81978087    -0.71500
Cu113      Cu  0.28520671  0.46735912  0.74924896     1.04600
Cu114      Cu  0.28533608  0.04014765  0.76578901     1.04300
C115        C  0.22808722  0.49634310  0.82930648     0.94800
C116        C  0.34122436  0.01114153  0.68471056     0.93900
C117        C  0.34189289  0.99606845  0.83026494     0.86000
C118        C  0.22989844  0.51143021  0.68371175     0.92300
C119        C  0.41464933  0.50769943  0.55538536     0.88000
C120        C  0.44247274  0.47027904  0.55711586    -0.52200
C121        C  0.46608219  0.46282649  0.01311312     0.10900
C122        C  0.45841844  0.99453946  0.97092567     0.21900
C123        C  0.44319747  0.04336097  0.54470955    -0.53000
C124        C  0.46592407  0.03654865  0.00032906     0.11000
C125        C  0.38910344  0.50048364  0.50556395    -0.52500
C126        C  0.41188343  0.49382396  0.96125910     0.11600
H127        H  0.44421440  0.45289774  0.59209810     0.16100
H128        H  0.47687545  0.98961586  0.93468923     0.01800
H129        H  0.44602785  0.07101735  0.57042265     0.16400
H130        H  0.35594962  0.50184237  0.00509676     0.16200
C131        C  0.03455633  0.11552199  0.93805845     0.88000
C132        C  0.07182757  0.08710110  0.94155907    -0.52200
C133        C  0.07185208  0.06535298  0.48588755     0.10900
C134        C  0.03515168  0.07376904  0.52204481     0.21900
C135        C  0.49751347  0.08690489  0.94200048    -0.53000
C136        C  0.49811479  0.06516922  0.48632551     0.11000
C137        C  0.03475043  0.14248493  0.98943942    -0.52500
C138        C  0.03505915  0.12039939  0.53325683     0.11600
H139        H  0.09596156  0.08471468  0.91240423     0.16100
H140        H  0.03539411  0.05583067  0.55796787     0.01800
H141        H  0.47306740  0.08439126  0.91314394     0.16400
H142        H  0.03461624  0.17597744  0.49101221     0.16200
O143        O  0.50087148  0.29594825  0.79875944    -0.71400
O144        O  0.50104903  0.20164995  0.68959569    -0.72400
O145        O  0.50051019  0.20792519  0.80117042    -0.61000
O146        O  0.50139400  0.28752924  0.68683894    -0.69500
O147        O  0.06931845  0.28728995  0.68759362    -0.69000
O148        O  0.06838010  0.20771700  0.80185489    -0.60300
O149        O  0.06894000  0.20141729  0.69031462    -0.72800
O150        O  0.06868084  0.29569564  0.79947679    -0.71500
Cu151      Cu  0.49855372  0.24833037  0.74438963     1.04600
Cu152      Cu  0.07121802  0.24807930  0.74516589     1.04300
C153        C  0.03475531  0.31087393  0.81590319     0.94800
C154        C  0.03503328  0.18789855  0.67161946     0.93900
C155        C  0.03432871  0.19468621  0.81861427     0.86000
C156        C  0.03550029  0.29845836  0.66801556     0.92300
C157        C  0.03572122  0.37176629  0.54327701     0.88000
C158        C  0.07263385  0.40000862  0.54619414    -0.52200
C159        C  0.07289287  0.42967687  0.01004112     0.10900
C160        C  0.03522404  0.42661643  0.97261386     0.21900
C161        C  0.99875211  0.39990875  0.54666384    -0.53000
C162        C  0.99797217  0.42955990  0.01051969     0.11000
C163        C  0.03543640  0.35265023  0.48773409    -0.52500
C164        C  0.03517009  0.38095433  0.95025034     0.11600
H165        H  0.09629159  0.39624658  0.57529488     0.16100
H166        H  0.03501538  0.44963279  0.94215868     0.01800
H167        H  0.47542873  0.39607844  0.57605002     0.16400
H168        H  0.03543056  0.31956350  0.97868031     0.16200
C169        C  0.03472146  0.34394068  0.85612030    -0.11800
C170        C  0.03485859  0.36637564  0.89562223    -0.13300
C171        C  0.03593101  0.34271096  0.58490448    -0.11800
C172        C  0.03582553  0.32249348  0.62291905    -0.13300
C173        C  0.03421745  0.14058049  0.89201222    -0.11800
C174        C  0.03410996  0.16460472  0.85766205    -0.13300
C175        C  0.03513368  0.15911475  0.62702117    -0.11800
C176        C  0.03515098  0.13966211  0.58543765    -0.13300
C177        C  0.37138356  0.49217546  0.87156690    -0.11800
C178        C  0.39267255  0.49117543  0.91019143    -0.13300
C179        C  0.36907892  0.51471880  0.64194686    -0.11800
C180        C  0.39022310  0.51399258  0.60329798    -0.13300
C181        C  0.17710472  0.99164162  0.90876457    -0.11800
C182        C  0.19838110  0.99257711  0.87023223    -0.13300
C183        C  0.20226128  0.01514903  0.64057036    -0.11800
C184        C  0.18105169  0.01450761  0.60185413    -0.13300
C185        C  0.15625572  0.50817773  0.05410982     0.88000
C186        C  0.12745829  0.54373748  0.04368739    -0.52200
C187        C  0.10435349  0.53685656  0.49950792     0.10900
C188        C  0.11178311  0.99486040  0.47002911     0.21900
C189        C  0.12861014  0.97065711  0.05607256    -0.53000
C190        C  0.10463925  0.96310329  0.51229119     0.11000
C191        C  0.18138548  0.50106008  0.00407534    -0.52500
C192        C  0.15825035  0.49432016  0.45995862     0.11600
H193        H  0.12472924  0.57136846  0.06944997     0.16100
H194        H  0.09301778  0.98985744  0.43395952     0.01800
H195        H  0.12725677  0.95327075  0.09106814     0.16400
H196        H  0.21453063  0.50250990  0.50333675     0.16200
O197        O  0.24154756  0.96403552  0.30433741    -0.71400
O198        O  0.32832124  0.97544075  0.19509418    -0.72400
O199        O  0.32843360  0.96382186  0.30508909    -0.61000
O200        O  0.24254548  0.97566447  0.19430885    -0.69500
O201        O  0.24254461  0.54369818  0.20956821    -0.69000
O202        O  0.32855390  0.53180422  0.32052757    -0.60300
O203        O  0.32856398  0.54347745  0.21033756    -0.72800
O204        O  0.24166963  0.53201548  0.31978084    -0.71500
Cu205      Cu  0.28520666  0.96735920  0.24924886     1.04600
Cu206      Cu  0.28533606  0.54014767  0.26578901     1.04300
C207        C  0.22808720  0.99634309  0.32930640     0.94800
C208        C  0.34122448  0.51114159  0.18471071     0.93900
C209        C  0.34189282  0.49606844  0.33026499     0.86000
C210        C  0.22989840  0.01143020  0.18371161     0.92300
C211        C  0.41464923  0.00769934  0.05538557     0.88000
C212        C  0.44247272  0.97027911  0.05711583    -0.52200
C213        C  0.46608217  0.96282645  0.51311289     0.10900
C214        C  0.45841832  0.49453949  0.47092578     0.21900
C215        C  0.44319739  0.54336098  0.04470964    -0.53000
C216        C  0.46592420  0.53654863  0.50032881     0.11000
C217        C  0.38910337  0.00048360  0.00556397    -0.52500
C218        C  0.41188341  0.99382397  0.46125911     0.11600
H219        H  0.44421436  0.95289652  0.09210025     0.16100
H220        H  0.47687685  0.48961542  0.43468642     0.01800
H221        H  0.44602740  0.57101687  0.07042205     0.16400
H222        H  0.35594935  0.00184263  0.50509694     0.16200
C223        C  0.03455639  0.61552210  0.43805868     0.88000
C224        C  0.07182766  0.58710125  0.44155903    -0.52200
C225        C  0.07185197  0.56535287  0.98588749     0.10900
C226        C  0.03515156  0.57376912  0.02204474     0.21900
C227        C  0.49751346  0.58690500  0.44200043    -0.53000
C228        C  0.49811464  0.56516919  0.98632528     0.11000
C229        C  0.03475050  0.64248491  0.48943950    -0.52500
C230        C  0.03505905  0.62039943  0.03325679     0.11600
H231        H  0.09595989  0.58471453  0.41240550     0.16100
H232        H  0.03539364  0.55583079  0.05796792     0.01800
H233        H  0.47306869  0.58439196  0.41314604     0.16400
H234        H  0.03461608  0.67597774  0.99101228     0.16200
O235        O  0.50087152  0.79594834  0.29875950    -0.71400
O236        O  0.50104898  0.70164987  0.18959586    -0.72400
O237        O  0.50051015  0.70792518  0.30117054    -0.61000
O238        O  0.50139400  0.78752906  0.18683899    -0.69500
O239        O  0.06931843  0.78728996  0.18759359    -0.69000
O240        O  0.06838006  0.70771702  0.30185487    -0.60300
O241        O  0.06893999  0.70141720  0.19031465    -0.72800
O242        O  0.06868087  0.79569554  0.29947669    -0.71500
Cu243      Cu  0.49855369  0.74833037  0.24438971     1.04600
Cu244      Cu  0.07121799  0.74807930  0.24516583     1.04300
C245        C  0.03475535  0.81087390  0.31590316     0.94800
C246        C  0.03503334  0.68789852  0.17161946     0.93900
C247        C  0.03432868  0.69468621  0.31861432     0.86000
C248        C  0.03550026  0.79845820  0.16801549     0.92300
C249        C  0.03572133  0.87176633  0.04327720     0.88000
C250        C  0.07263385  0.90000859  0.04619419    -0.52200
C251        C  0.07289279  0.92967709  0.51004071     0.10900
C252        C  0.03522401  0.92661634  0.47261387     0.21900
C253        C  0.99875213  0.89990875  0.04666391    -0.53000
C254        C  0.99797225  0.92955998  0.51051935     0.11000
C255        C  0.03543631  0.85265029  0.98773416    -0.52500
C256        C  0.03517003  0.88095446  0.45025014     0.11600
H257        H  0.09629337  0.89624643  0.07529711     0.16100
H258        H  0.03501523  0.94963378  0.44215682     0.01800
H259        H  0.47542879  0.89607856  0.07605001     0.16400
H260        H  0.03543062  0.81956369  0.47868014     0.16200
C261        C  0.03472131  0.84394071  0.35612014    -0.11800
C262        C  0.03485865  0.86637561  0.39562213    -0.13300
C263        C  0.03593096  0.84271093  0.08490438    -0.11800
C264        C  0.03582562  0.82249359  0.12291911    -0.13300
C265        C  0.03421742  0.64058054  0.39201236    -0.11800
C266        C  0.03410986  0.66460480  0.35766223    -0.13300
C267        C  0.03513381  0.65911476  0.12702115    -0.11800
C268        C  0.03515095  0.63966199  0.08543772    -0.13300
C269        C  0.37138346  0.99217548  0.37156689    -0.11800
C270        C  0.39267245  0.99117547  0.41019147    -0.13300
C271        C  0.36907904  0.01471887  0.14194707    -0.11800
C272        C  0.39022299  0.01399257  0.10329800    -0.13300
C273        C  0.17710461  0.49164160  0.40876459    -0.11800
C274        C  0.19838109  0.49257708  0.37023231    -0.13300
C275        C  0.20226143  0.51514901  0.14057043    -0.11800
C276        C  0.18105185  0.51450757  0.10185423    -0.13300
C277        C  0.15625573  0.50817750  0.55410977     0.88000
C278        C  0.12745838  0.54373764  0.54368765    -0.52200
C279        C  0.10435350  0.53685659  0.99950803     0.10900
C280        C  0.11178298  0.99486026  0.97002911     0.21900
C281        C  0.12861015  0.97065713  0.55607263    -0.53000
C282        C  0.10463908  0.96310325  0.01229124     0.11000
C283        C  0.18138542  0.50105990  0.50407552    -0.52500
C284        C  0.15825031  0.49432007  0.95995853     0.11600
H285        H  0.12472978  0.57136595  0.56944816     0.16100
H286        H  0.09301761  0.98985722  0.93395951     0.01800
H287        H  0.12725686  0.95327066  0.59106820     0.16400
H288        H  0.21453011  0.50250987  0.00333647     0.16200
O289        O  0.24154762  0.96403558  0.80433768    -0.71400
O290        O  0.32832120  0.97544063  0.69509432    -0.72400
O291        O  0.32843364  0.96382191  0.80508922    -0.61000
O292        O  0.24254557  0.97566455  0.69430920    -0.69500
O293        O  0.24254468  0.54369811  0.70956835    -0.69000
O294        O  0.32855392  0.53180423  0.82052749    -0.60300
O295        O  0.32856396  0.54347722  0.71033753    -0.72800
O296        O  0.24166968  0.53201540  0.81978094    -0.71500
Cu297      Cu  0.28520668  0.96735921  0.74924898     1.04600
Cu298      Cu  0.28533608  0.54014757  0.76578902     1.04300
C299        C  0.22808722  0.99634318  0.82930650     0.94800
C300        C  0.34122438  0.51114147  0.68471054     0.93900
C301        C  0.34189291  0.49606848  0.83026496     0.86000
C302        C  0.22989835  0.01143026  0.68371182     0.92300
C303        C  0.41464928  0.00769946  0.55538553     0.88000
C304        C  0.44247275  0.97027916  0.55711577    -0.52200
C305        C  0.46608216  0.96282652  0.01311305     0.10900
C306        C  0.45841843  0.49453943  0.97092566     0.21900
C307        C  0.44319755  0.54336093  0.54470944    -0.53000
C308        C  0.46592400  0.53654863  0.00032904     0.11000
C309        C  0.38910337  0.00048360  0.50556404    -0.52500
C310        C  0.41188340  0.99382391  0.96125914     0.11600
H311        H  0.44421434  0.95289666  0.59209993     0.16100
H312        H  0.47687546  0.48961603  0.93468916     0.01800
H313        H  0.44602788  0.57101711  0.57042218     0.16400
H314        H  0.35594935  0.00184277  0.00509670     0.16200
C315        C  0.03455637  0.61552200  0.93805849     0.88000
C316        C  0.07182758  0.58710110  0.94155903    -0.52200
C317        C  0.07185189  0.56535294  0.48588769     0.10900
C318        C  0.03515166  0.57376923  0.52204486     0.21900
C319        C  0.49751349  0.58690491  0.94200043    -0.53000
C320        C  0.49811479  0.56516927  0.48632553     0.11000
C321        C  0.03475047  0.64248489  0.98943947    -0.52500
C322        C  0.03505905  0.62039951  0.53325686     0.11600
H323        H  0.09596158  0.58471472  0.91240419     0.16100
H324        H  0.03539408  0.55583087  0.55796809     0.01800
H325        H  0.47306744  0.58439130  0.91314388     0.16400
H326        H  0.03461570  0.67597788  0.49101230     0.16200
O327        O  0.50087154  0.79594826  0.79875945    -0.71400
O328        O  0.50104887  0.70164988  0.68959574    -0.72400
O329        O  0.50051020  0.70792518  0.80117043    -0.61000
O330        O  0.50139403  0.78752916  0.68683890    -0.69500
O331        O  0.06931850  0.78728993  0.68759371    -0.69000
O332        O  0.06838013  0.70771701  0.80185476    -0.60300
O333        O  0.06894004  0.70141726  0.69031464    -0.72800
O334        O  0.06868087  0.79569561  0.79947683    -0.71500
Cu335      Cu  0.49855372  0.74833035  0.74438964     1.04600
Cu336      Cu  0.07121807  0.74807928  0.74516587     1.04300
C337        C  0.03475535  0.81087390  0.81590322     0.94800
C338        C  0.03503331  0.68789851  0.67161951     0.93900
C339        C  0.03432874  0.69468632  0.81861438     0.86000
C340        C  0.03550032  0.79845820  0.66801550     0.92300
C341        C  0.03572123  0.87176634  0.54327698     0.88000
C342        C  0.07263386  0.90000865  0.54619413    -0.52200
C343        C  0.07289294  0.92967679  0.01004093     0.10900
C344        C  0.03522394  0.92661653  0.97261380     0.21900
C345        C  0.99875208  0.89990871  0.54666379    -0.53000
C346        C  0.99797210  0.92955984  0.01051951     0.11000
C347        C  0.03543637  0.85265031  0.48773410    -0.52500
C348        C  0.03517016  0.88095442  0.95025028     0.11600
H349        H  0.09629168  0.89624657  0.57529478     0.16100
H350        H  0.03501517  0.94963273  0.94215908     0.01800
H351        H  0.47542932  0.89607872  0.57604955     0.16400
H352        H  0.03543066  0.81956369  0.97868029     0.16200
C353        C  0.03472149  0.84394068  0.85612023    -0.11800
C354        C  0.03485853  0.86637554  0.89562225    -0.13300
C355        C  0.03593098  0.84271099  0.58490448    -0.11800
C356        C  0.03582556  0.82249352  0.62291909    -0.13300
C357        C  0.03421746  0.64058046  0.89201231    -0.11800
C358        C  0.03410992  0.66460475  0.85766220    -0.13300
C359        C  0.03513372  0.65911477  0.62702114    -0.11800
C360        C  0.03515099  0.63966205  0.58543768    -0.13300
C361        C  0.37138358  0.99217548  0.87156684    -0.11800
C362        C  0.39267259  0.99117549  0.91019138    -0.13300
C363        C  0.36907890  0.01471884  0.64194687    -0.11800
C364        C  0.39022308  0.01399257  0.60329800    -0.13300
C365        C  0.17710471  0.49164146  0.90876455    -0.11800
C366        C  0.19838110  0.49257703  0.87023222    -0.13300
C367        C  0.20226133  0.51514896  0.64057037    -0.11800
C368        C  0.18105169  0.51450755  0.60185419    -0.13300
C369        C  0.65625574  0.00817751  0.05410976     0.88000
C370        C  0.62745833  0.04373761  0.04368757    -0.52200
C371        C  0.60435346  0.03685651  0.49950797     0.10900
C372        C  0.61178304  0.49486041  0.47002910     0.21900
C373        C  0.62861012  0.47065718  0.05607263    -0.53000
C374        C  0.60463918  0.46310330  0.51229122     0.11000
C375        C  0.68138551  0.00105994  0.00407542    -0.52500
C376        C  0.65825037  0.99432008  0.45995860     0.11600
H377        H  0.62472934  0.07136594  0.06944828     0.16100
H378        H  0.59301782  0.48985743  0.43395961     0.01800
H379        H  0.62725697  0.45327057  0.09106810     0.16400
H380        H  0.71453020  0.00250995  0.50333676     0.16200
O381        O  0.74154757  0.46403553  0.30433759    -0.71400
O382        O  0.82832119  0.47544077  0.19509437    -0.72400
O383        O  0.82843357  0.46382186  0.30508931    -0.61000
O384        O  0.74254544  0.47566449  0.19430909    -0.69500
O385        O  0.74254460  0.04369805  0.20956825    -0.69000
O386        O  0.82855387  0.03180430  0.32052763    -0.60300
O387        O  0.82856396  0.04347735  0.21033765    -0.72800
O388        O  0.74166962  0.03201537  0.31978082    -0.71500
Cu389      Cu  0.78520662  0.46735921  0.24924898     1.04600
Cu390      Cu  0.78533605  0.04014763  0.26578902     1.04300
C391        C  0.72808726  0.49634317  0.32930653     0.94800
C392        C  0.84122439  0.01114157  0.18471066     0.93900
C393        C  0.84189281  0.99606849  0.33026498     0.86000
C394        C  0.72989840  0.51143026  0.18371169     0.92300
C395        C  0.91464927  0.50769929  0.05538562     0.88000
C396        C  0.94247272  0.47027911  0.05711592    -0.52200
C397        C  0.96608222  0.46282660  0.51311269     0.10900
C398        C  0.95841835  0.99453944  0.47092575     0.21900
C399        C  0.94319743  0.04336097  0.04470965    -0.53000
C400        C  0.96592404  0.03654863  0.50032900     0.11000
C401        C  0.88910340  0.50048345  0.00556397    -0.52500
C402        C  0.91188351  0.49382389  0.46125893     0.11600
H403        H  0.94421476  0.45289652  0.09210086     0.16100
H404        H  0.97687604  0.98961591  0.43468781     0.01800
H405        H  0.94602741  0.07101689  0.07042205     0.16400
H406        H  0.85594958  0.50184272  0.50509687     0.16200
C407        C  0.53455654  0.11552205  0.43805855     0.88000
C408        C  0.57182751  0.08710111  0.44155906    -0.52200
C409        C  0.57185199  0.06535295  0.98588757     0.10900
C410        C  0.53515158  0.07376917  0.02204476     0.21900
C411        C  0.99751360  0.08690492  0.44200052    -0.53000
C412        C  0.99811465  0.06516922  0.98632533     0.11000
C413        C  0.53475049  0.14248493  0.48943949    -0.52500
C414        C  0.53505903  0.12039947  0.03325677     0.11600
H415        H  0.59596190  0.08471475  0.41240376     0.16100
H416        H  0.53539371  0.05583083  0.05796797     0.01800
H417        H  0.97306865  0.08439163  0.41314563     0.16400
H418        H  0.53461572  0.17597770  0.99101218     0.16200
O419        O  0.00087155  0.29594830  0.29875946    -0.71400
O420        O  0.00104909  0.20164984  0.18959578    -0.72400
O421        O  0.00051009  0.20792520  0.30117046    -0.61000
O422        O  0.00139400  0.28752910  0.18683898    -0.69500
O423        O  0.56931846  0.28728999  0.18759368    -0.69000
O424        O  0.56838005  0.20771693  0.30185484    -0.60300
O425        O  0.56894010  0.20141730  0.19031471    -0.72800
O426        O  0.56868091  0.29569558  0.29947684    -0.71500
Cu427      Cu  0.99855371  0.24833033  0.24438966     1.04600
Cu428      Cu  0.57121804  0.24807928  0.24516591     1.04300
C429        C  0.53475535  0.31087388  0.31590321     0.94800
C430        C  0.53503343  0.18789850  0.17161952     0.93900
C431        C  0.53432862  0.19468626  0.31861435     0.86000
C432        C  0.53550026  0.29845815  0.16801545     0.92300
C433        C  0.53572124  0.37176630  0.04327729     0.88000
C434        C  0.57263388  0.40000855  0.04619432    -0.52200
C435        C  0.57289278  0.42967702  0.51004070     0.10900
C436        C  0.53522394  0.42661643  0.47261384     0.21900
C437        C  0.49875218  0.39990873  0.04666377    -0.53000
C438        C  0.49797204  0.42955990  0.51051934     0.11000
C439        C  0.53543635  0.35265020  0.98773422    -0.52500
C440        C  0.53517004  0.38095441  0.45025017     0.11600
H441        H  0.59629280  0.39624649  0.07529688     0.16100
H442        H  0.53501528  0.44963360  0.44215739     0.01800
H443        H  0.97542731  0.39607833  0.07605147     0.16400
H444        H  0.53543061  0.31956347  0.47868012     0.16200
C445        C  0.53472133  0.34394064  0.35612019    -0.11800
C446        C  0.53485863  0.36637548  0.39562220    -0.13300
C447        C  0.53593092  0.34271098  0.08490445    -0.11800
C448        C  0.53582552  0.32249352  0.12291906    -0.13300
C449        C  0.53421749  0.14058041  0.39201217    -0.11800
C450        C  0.53410985  0.16460478  0.35766215    -0.13300
C451        C  0.53513366  0.15911477  0.12702113    -0.11800
C452        C  0.53515102  0.13966204  0.08543767    -0.13300
C453        C  0.87138347  0.49217543  0.37156689    -0.11800
C454        C  0.89267256  0.49117550  0.41019135    -0.13300
C455        C  0.86907890  0.51471879  0.14194691    -0.11800
C456        C  0.89022310  0.51399249  0.10329806    -0.13300
C457        C  0.67710462  0.99164163  0.40876458    -0.11800
C458        C  0.69838110  0.99257703  0.37023232    -0.13300
C459        C  0.70226140  0.01514890  0.14057046    -0.11800
C460        C  0.68105178  0.01450756  0.10185430    -0.13300
C461        C  0.65625568  0.00817752  0.55410977     0.88000
C462        C  0.62745832  0.04373759  0.54368766    -0.52200
C463        C  0.60435340  0.03685644  0.99950793     0.10900
C464        C  0.61178310  0.49486027  0.97002921     0.21900
C465        C  0.62861007  0.47065712  0.55607267    -0.53000
C466        C  0.60463920  0.46310323  0.01229126     0.11000
C467        C  0.68138548  0.00106001  0.50407551    -0.52500
C468        C  0.65825032  0.99432017  0.95995851     0.11600
H469        H  0.62472975  0.07136590  0.56944812     0.16100
H470        H  0.59301774  0.48985698  0.93395953     0.01800
H471        H  0.62725675  0.45327077  0.59106806     0.16400
H472        H  0.71453000  0.00250991  0.00333658     0.16200
O473        O  0.74154760  0.46403545  0.80433758    -0.71400
O474        O  0.82832124  0.47544070  0.69509440    -0.72400
O475        O  0.82843364  0.46382185  0.80508938    -0.61000
O476        O  0.74254553  0.47566444  0.69430910    -0.69500
O477        O  0.74254469  0.04369814  0.70956827    -0.69000
O478        O  0.82855393  0.03180417  0.82052758    -0.60300
O479        O  0.82856399  0.04347741  0.71033761    -0.72800
O480        O  0.74166965  0.03201543  0.81978083    -0.71500
Cu481      Cu  0.78520670  0.46735912  0.74924896     1.04600
Cu482      Cu  0.78533609  0.04014765  0.76578903     1.04300
C483        C  0.72808723  0.49634310  0.82930646     0.94800
C484        C  0.84122456  0.01114152  0.68471076     0.93900
C485        C  0.84189289  0.99606845  0.83026497     0.86000
C486        C  0.72989842  0.51143021  0.68371175     0.92300
C487        C  0.91464932  0.50769943  0.55538537     0.88000
C488        C  0.94247273  0.47027904  0.55711587    -0.52200
C489        C  0.96608210  0.46282647  0.01311310     0.10900
C490        C  0.95841838  0.99453946  0.97092567     0.21900
C491        C  0.94319749  0.04336096  0.54470954    -0.53000
C492        C  0.96592405  0.03654865  0.00032906     0.11000
C493        C  0.88910343  0.50048364  0.50556396    -0.52500
C494        C  0.91188345  0.49382393  0.96125910     0.11600
H495        H  0.94421440  0.45289773  0.59209809     0.16100
H496        H  0.97687549  0.98961581  0.93468900     0.01800
H497        H  0.94602794  0.07101736  0.57042260     0.16400
H498        H  0.85594959  0.50184235  0.00509676     0.16200
C499        C  0.53455635  0.11552199  0.93805845     0.88000
C500        C  0.57182759  0.08710111  0.94155904    -0.52200
C501        C  0.57185203  0.06535295  0.48588757     0.10900
C502        C  0.53515161  0.07376906  0.52204484     0.21900
C503        C  0.99751348  0.08690490  0.94200047    -0.53000
C504        C  0.99811472  0.06516922  0.48632556     0.11000
C505        C  0.53475045  0.14248492  0.98943943    -0.52500
C506        C  0.53505912  0.12039940  0.53325684     0.11600
H507        H  0.59596162  0.08471470  0.91240419     0.16100
H508        H  0.53539366  0.05583068  0.55796790     0.01800
H509        H  0.97306739  0.08439127  0.91314391     0.16400
H510        H  0.53461624  0.17597748  0.49101222     0.16200
O511        O  0.00087151  0.29594825  0.79875944    -0.71400
O512        O  0.00104885  0.20164993  0.68959568    -0.72400
O513        O  0.00051019  0.20792518  0.80117043    -0.61000
O514        O  0.00139402  0.28752921  0.68683884    -0.69500
O515        O  0.56931846  0.28728998  0.68759371    -0.69000
O516        O  0.56838009  0.20771699  0.80185488    -0.60300
O517        O  0.56894000  0.20141731  0.69031462    -0.72800
O518        O  0.56868082  0.29569564  0.79947679    -0.71500
Cu519      Cu  0.99855370  0.24833035  0.74438963     1.04600
Cu520      Cu  0.57121802  0.24807932  0.74516589     1.04300
C521        C  0.53475529  0.31087392  0.81590319     0.94800
C522        C  0.53503337  0.18789855  0.67161945     0.93900
C523        C  0.53432870  0.19468621  0.81861427     0.86000
C524        C  0.53550029  0.29845826  0.66801553     0.92300
C525        C  0.53572122  0.37176629  0.54327699     0.88000
C526        C  0.57263385  0.40000861  0.54619413    -0.52200
C527        C  0.57289284  0.42967688  0.01004111     0.10900
C528        C  0.53522401  0.42661643  0.97261386     0.21900
C529        C  0.49875209  0.39990875  0.54666384    -0.53000
C530        C  0.49797215  0.42955986  0.01051968     0.11000
C531        C  0.53543639  0.35265023  0.48773407    -0.52500
C532        C  0.53517007  0.38095434  0.95025034     0.11600
H533        H  0.59629159  0.39624657  0.57529488     0.16100
H534        H  0.53501534  0.44963280  0.94215872     0.01800
H535        H  0.97542872  0.39607843  0.57605002     0.16400
H536        H  0.53543055  0.31956351  0.97868031     0.16200
C537        C  0.53472144  0.34394068  0.85612030    -0.11800
C538        C  0.53485857  0.36637565  0.89562223    -0.13300
C539        C  0.53593101  0.34271096  0.58490447    -0.11800
C540        C  0.53582552  0.32249355  0.62291913    -0.13300
C541        C  0.53421745  0.14058049  0.89201223    -0.11800
C542        C  0.53410994  0.16460471  0.85766206    -0.13300
C543        C  0.53513377  0.15911475  0.62702117    -0.11800
C544        C  0.53515097  0.13966211  0.58543765    -0.13300
C545        C  0.87138355  0.49217546  0.87156691    -0.11800
C546        C  0.89267256  0.49117543  0.91019144    -0.13300
C547        C  0.86907891  0.51471880  0.64194686    -0.11800
C548        C  0.89022309  0.51399258  0.60329798    -0.13300
C549        C  0.67710472  0.99164161  0.90876457    -0.11800
C550        C  0.69838109  0.99257711  0.87023222    -0.13300
C551        C  0.70226127  0.01514903  0.64057036    -0.11800
C552        C  0.68105168  0.01450761  0.60185413    -0.13300
C553        C  0.65625571  0.50817773  0.05410984     0.88000
C554        C  0.62745828  0.54373748  0.04368739    -0.52200
C555        C  0.60435348  0.53685656  0.49950791     0.10900
C556        C  0.61178309  0.99486040  0.47002911     0.21900
C557        C  0.62861012  0.97065708  0.05607252    -0.53000
C558        C  0.60463924  0.96310329  0.51229120     0.11000
C559        C  0.68138551  0.50106009  0.00407542    -0.52500
C560        C  0.65825036  0.49432016  0.45995863     0.11600
H561        H  0.62472921  0.57136845  0.06944995     0.16100
H562        H  0.59301777  0.98985743  0.43395952     0.01800
H563        H  0.62725655  0.95327067  0.09106838     0.16400
H564        H  0.71453061  0.50250990  0.50333676     0.16200
O565        O  0.74154757  0.96403550  0.30433761    -0.71400
O566        O  0.82832124  0.97544075  0.19509439    -0.72400
O567        O  0.82843357  0.96382185  0.30508929    -0.61000
O568        O  0.74254545  0.97566447  0.19430907    -0.69500
O569        O  0.74254460  0.54369818  0.20956821    -0.69000
O570        O  0.82855393  0.53180422  0.32052759    -0.60300
O571        O  0.82856397  0.54347745  0.21033756    -0.72800
O572        O  0.74166966  0.53201548  0.31978082    -0.71500
Cu573      Cu  0.78520664  0.96735920  0.24924895     1.04600
Cu574      Cu  0.78533606  0.54014767  0.26578901     1.04300
C575        C  0.72808717  0.99634310  0.32930647     0.94800
C576        C  0.84122447  0.51114159  0.18471071     0.93900
C577        C  0.84189289  0.49606845  0.33026493     0.86000
C578        C  0.72989841  0.01143019  0.18371168     0.92300
C579        C  0.91464923  0.00769934  0.05538559     0.88000
C580        C  0.94247271  0.97027911  0.05711589    -0.52200
C581        C  0.96608217  0.96282645  0.51311288     0.10900
C582        C  0.95841833  0.49453949  0.47092580     0.21900
C583        C  0.94319738  0.54336099  0.04470962    -0.53000
C584        C  0.96592420  0.53654863  0.50032882     0.11000
C585        C  0.88910336  0.00048359  0.00556394    -0.52500
C586        C  0.91188340  0.99382399  0.46125912     0.11600
H587        H  0.94421434  0.95289655  0.09210021     0.16100
H588        H  0.97687685  0.48961542  0.43468644     0.01800
H589        H  0.94602737  0.57101690  0.07042207     0.16400
H590        H  0.85594934  0.00184264  0.50509697     0.16200
C591        C  0.53455639  0.61552210  0.43805868     0.88000
C592        C  0.57182766  0.58710125  0.44155904    -0.52200
C593        C  0.57185197  0.56535287  0.98588749     0.10900
C594        C  0.53515155  0.57376912  0.02204473     0.21900
C595        C  0.99751348  0.58690500  0.44200043    -0.53000
C596        C  0.99811465  0.56516921  0.98632528     0.11000
C597        C  0.53475049  0.64248491  0.48943951    -0.52500
C598        C  0.53505904  0.62039943  0.03325679     0.11600
H599        H  0.59595989  0.58471453  0.41240550     0.16100
H600        H  0.53539365  0.55583080  0.05796792     0.01800
H601        H  0.97306869  0.58439198  0.41314603     0.16400
H602        H  0.53461606  0.67597774  0.99101228     0.16200
O603        O  0.00087152  0.79594834  0.29875950    -0.71400
O604        O  0.00104899  0.70164987  0.18959585    -0.72400
O605        O  0.00051016  0.70792518  0.30117054    -0.61000
O606        O  0.00139401  0.78752907  0.18683899    -0.69500
O607        O  0.56931842  0.78728996  0.18759359    -0.69000
O608        O  0.56838005  0.70771702  0.30185487    -0.60300
O609        O  0.56893998  0.70141719  0.19031465    -0.72800
O610        O  0.56868086  0.79569554  0.29947669    -0.71500
Cu611      Cu  0.99855369  0.74833037  0.24438971     1.04600
Cu612      Cu  0.57121798  0.74807930  0.24516583     1.04300
C613        C  0.53475534  0.81087390  0.31590316     0.94800
C614        C  0.53503333  0.68789852  0.17161946     0.93900
C615        C  0.53432867  0.69468621  0.31861432     0.86000
C616        C  0.53550025  0.79845820  0.16801548     0.92300
C617        C  0.53572134  0.87176632  0.04327720     0.88000
C618        C  0.57263387  0.90000853  0.04619419    -0.52200
C619        C  0.57289279  0.92967708  0.51004070     0.10900
C620        C  0.53522401  0.92661634  0.47261387     0.21900
C621        C  0.49875217  0.89990877  0.04666392    -0.53000
C622        C  0.49797225  0.92955997  0.51051935     0.11000
C623        C  0.53543630  0.85265029  0.98773416    -0.52500
C624        C  0.53517002  0.88095446  0.45025014     0.11600
H625        H  0.59629312  0.89624642  0.07529694     0.16100
H626        H  0.53501523  0.94963377  0.44215682     0.01800
H627        H  0.97542881  0.89607854  0.07605000     0.16400
H628        H  0.53543060  0.81956369  0.47868014     0.16200
C629        C  0.53472130  0.84394071  0.35612014    -0.11800
C630        C  0.53485864  0.86637561  0.39562213    -0.13300
C631        C  0.53593095  0.84271093  0.08490438    -0.11800
C632        C  0.53582560  0.82249359  0.12291910    -0.13300
C633        C  0.53421742  0.64058054  0.39201236    -0.11800
C634        C  0.53410984  0.66460480  0.35766223    -0.13300
C635        C  0.53513379  0.65911476  0.12702115    -0.11800
C636        C  0.53515093  0.63966199  0.08543772    -0.13300
C637        C  0.87138348  0.99217551  0.37156691    -0.11800
C638        C  0.89267245  0.99117547  0.41019149    -0.13300
C639        C  0.86907899  0.01471883  0.14194710    -0.11800
C640        C  0.89022298  0.01399257  0.10329805    -0.13300
C641        C  0.67710467  0.49164159  0.40876470    -0.11800
C642        C  0.69838107  0.49257708  0.37023235    -0.13300
C643        C  0.70226142  0.51514901  0.14057043    -0.11800
C644        C  0.68105182  0.51450757  0.10185424    -0.13300
C645        C  0.65625572  0.50817750  0.55410976     0.88000
C646        C  0.62745837  0.54373763  0.54368764    -0.52200
C647        C  0.60435351  0.53685659  0.99950800     0.10900
C648        C  0.61178300  0.99486031  0.97002913     0.21900
C649        C  0.62861014  0.97065713  0.55607263    -0.53000
C650        C  0.60463907  0.96310323  0.01229121     0.11000
C651        C  0.68138541  0.50105990  0.50407551    -0.52500
C652        C  0.65825035  0.49432007  0.95995859     0.11600
H653        H  0.62472977  0.57136595  0.56944816     0.16100
H654        H  0.59301760  0.98985727  0.93395938     0.01800
H655        H  0.62725685  0.95327066  0.59106820     0.16400
H656        H  0.71453024  0.50250988  0.00333660     0.16200
O657        O  0.74154761  0.96403558  0.80433768    -0.71400
O658        O  0.82832123  0.97544066  0.69509427    -0.72400
O659        O  0.82843365  0.96382191  0.80508924    -0.61000
O660        O  0.74254555  0.97566455  0.69430921    -0.69500
O661        O  0.74254467  0.54369811  0.70956835    -0.69000
O662        O  0.82855391  0.53180423  0.82052749    -0.60300
O663        O  0.82856395  0.54347722  0.71033753    -0.72800
O664        O  0.74166968  0.53201541  0.81978090    -0.71500
Cu665      Cu  0.78520666  0.96735922  0.74924897     1.04600
Cu666      Cu  0.78533607  0.54014758  0.76578902     1.04300
C667        C  0.72808721  0.99634318  0.82930649     0.94800
C668        C  0.84122437  0.51114147  0.68471054     0.93900
C669        C  0.84189290  0.49606848  0.83026496     0.86000
C670        C  0.72989834  0.01143026  0.68371182     0.92300
C671        C  0.91464931  0.00769948  0.55538553     0.88000
C672        C  0.94247275  0.97027916  0.55711576    -0.52200
C673        C  0.96608213  0.96282652  0.01311307     0.10900
C674        C  0.95841844  0.49453947  0.97092564     0.21900
C675        C  0.94319754  0.54336094  0.54470945    -0.53000
C676        C  0.96592400  0.53654867  0.00032904     0.11000
C677        C  0.88910335  0.00048361  0.50556406    -0.52500
C678        C  0.91188338  0.99382391  0.96125908     0.11600
H679        H  0.94421433  0.95289666  0.59209990     0.16100
H680        H  0.97687543  0.48961611  0.93468933     0.01800
H681        H  0.94602787  0.57101711  0.57042218     0.16400
H682        H  0.85594948  0.00184277  0.00509673     0.16200
C683        C  0.53455636  0.61552200  0.93805849     0.88000
C684        C  0.57182758  0.58710111  0.94155903    -0.52200
C685        C  0.57185189  0.56535295  0.48588769     0.10900
C686        C  0.53515166  0.57376923  0.52204486     0.21900
C687        C  0.99751351  0.58690492  0.94200044    -0.53000
C688        C  0.99811480  0.56516927  0.48632553     0.11000
C689        C  0.53475046  0.64248490  0.98943947    -0.52500
C690        C  0.53505904  0.62039952  0.53325686     0.11600
H691        H  0.59596158  0.58471472  0.91240419     0.16100
H692        H  0.53539409  0.55583088  0.55796809     0.01800
H693        H  0.97306744  0.58439132  0.91314387     0.16400
H694        H  0.53461568  0.67597788  0.49101230     0.16200
O695        O  0.00087154  0.79594826  0.79875945    -0.71400
O696        O  0.00104887  0.70164988  0.68959574    -0.72400
O697        O  0.00051020  0.70792518  0.80117043    -0.61000
O698        O  0.00139404  0.78752917  0.68683890    -0.69500
O699        O  0.56931849  0.78728993  0.68759371    -0.69000
O700        O  0.56838012  0.70771701  0.80185476    -0.60300
O701        O  0.56894003  0.70141726  0.69031464    -0.72800
O702        O  0.56868086  0.79569561  0.79947684    -0.71500
Cu703      Cu  0.99855373  0.74833035  0.74438964     1.04600
Cu704      Cu  0.57121806  0.74807928  0.74516587     1.04300
C705        C  0.53475534  0.81087390  0.81590322     0.94800
C706        C  0.53503330  0.68789851  0.67161951     0.93900
C707        C  0.53432873  0.69468632  0.81861438     0.86000
C708        C  0.53550032  0.79845820  0.66801550     0.92300
C709        C  0.53572122  0.87176634  0.54327698     0.88000
C710        C  0.57263386  0.90000865  0.54619412    -0.52200
C711        C  0.57289287  0.92967680  0.01004095     0.10900
C712        C  0.53522395  0.92661651  0.97261377     0.21900
C713        C  0.49875207  0.89990871  0.54666379    -0.53000
C714        C  0.49797215  0.92955987  0.01051952     0.11000
C715        C  0.53543636  0.85265030  0.48773410    -0.52500
C716        C  0.53517017  0.88095440  0.95025027     0.11600
H717        H  0.59629168  0.89624657  0.57529478     0.16100
H718        H  0.53501527  0.94963272  0.94215901     0.01800
H719        H  0.97542932  0.89607871  0.57604955     0.16400
H720        H  0.53543061  0.81956366  0.97868028     0.16200
C721        C  0.53472148  0.84394068  0.85612024    -0.11800
C722        C  0.53485851  0.86637554  0.89562225    -0.13300
C723        C  0.53593097  0.84271099  0.58490448    -0.11800
C724        C  0.53582555  0.82249352  0.62291909    -0.13300
C725        C  0.53421745  0.64058046  0.89201231    -0.11800
C726        C  0.53410990  0.66460475  0.85766220    -0.13300
C727        C  0.53513370  0.65911477  0.62702114    -0.11800
C728        C  0.53515098  0.63966206  0.58543768    -0.13300
C729        C  0.87138356  0.99217549  0.87156687    -0.11800
C730        C  0.89267254  0.99117549  0.91019140    -0.13300
C731        C  0.86907897  0.01471878  0.64194686    -0.11800
C732        C  0.89022325  0.01399257  0.60329807    -0.13300
C733        C  0.67710465  0.49164145  0.90876455    -0.11800
C734        C  0.69838115  0.49257702  0.87023232    -0.13300
C735        C  0.70226132  0.51514896  0.64057037    -0.11800
C736        C  0.68105168  0.51450755  0.60185419    -0.13300
loop_ 
_geom_bond_atom_site_label_1 
_geom_bond_atom_site_label_2 
_geom_bond_distance 
_geom_bond_site_symmetry_2 
_ccdc_geom_bond_type 
C1            C2   1.526       .  S
C1            C7   1.527       .  S
C1          C189   1.522   1_545  S
C1           C92   1.467       .  S
C2            H9   1.087       .  S
C2           C95   1.364   1_554  D
C3          C188   1.541   1_545  S
C3           C94   1.364       .  D
C3          C133   1.464       .  S
C4            C6   1.550       .  S
C4          C187   1.541       .  S
C4          C192   1.544       .  S
C4           H10   1.109       .  S
C5          C185   1.522       .  S
C5           H11   1.083       .  S
C5           C98   1.374       .  D
C6           C97   1.374       .  D
C6           C67   1.502       .  S
C7          H104   1.087       .  S
C7          C100   1.363   1_544  D
C8          C188   1.544       .  S
C8           C99   1.363   1_565  D
C8           C89   1.443       .  S
H12          C99   1.087       .  S
O13         Cu21   2.014       .  S
O13          C23   1.276       .  A
O14         Cu21   2.005       .  S
O14         C208   1.276       .  A
O15         Cu21   2.013       .  S
O15         C209   1.276       .  A
O16         Cu21   2.005       .  S
O16          C26   1.276       .  A
O17         Cu22   2.010       .  S
O17         C210   1.276       .  A
O18         Cu22   2.014       .  S
O18          C25   1.277   1_545  A
O19         Cu22   2.010       .  S
O19          C24   1.276       .  A
O20         Cu22   2.015       .  S
O20         C207   1.277   1_545  A
Cu21       Cu206   2.379       .  S
Cu22       Cu205   2.379   1_545  S
C23         O204   1.277       .  A
C23         C274   1.438       .  S
C24         O198   1.276   1_545  A
C24         C271   1.433       .  S
C25         O199   1.276       .  A
C25         C269   1.438       .  S
C26         O201   1.276       .  A
C26         C275   1.433       .  S
C27          C28   1.522       .  S
C27          C33   1.527       .  S
C27         C215   1.525       .  S
C27          C88   1.467       .  S
C28          H35   1.083       .  S
C28         C121   1.374       .  D
C29         C214   1.550       .  S
C29         C120   1.374       .  D
C29         C438   1.502       .  S
C30          C32   1.540   1_565  S
C30         C213   1.550       .  S
C30         C218   1.544       .  S
C30          H36   1.109       .  S
C31         C211   1.525       .  S
C31          H37   1.087       .  S
C31         C124   1.364       .  D
C32         C123   1.364       .  D
C32         C136   1.464       .  S
C33         H130   1.087       .  S
C33         C126   1.362   1_554  D
C34         C214   1.544       .  S
C34         C125   1.362       .  D
C34          C86   1.443       .  S
H38         C125   1.087       .  S
C39          C40   1.536       .  S
C39          C45   1.535       .  S
C39         C411   1.536   1_455  S
C39          C81   1.465       .  S
C40          H47   1.086       .  S
C40         C133   1.365       .  D
C41          C42   1.532   1_556  S
C41         C132   1.365       .  D
C41          C95   1.464       .  S
C42          C46   1.526       .  S
C42         C412   1.532   1_454  S
C42          H48   1.112       .  S
C43         C407   1.536       .  S
C43          H49   1.086       .  S
C43         C136   1.365       .  D
C44         C410   1.532   1_556  S
C44         C135   1.365       .  D
C44         C124   1.464   1_556  S
C45         H142   1.087       .  S
C45         C138   1.360       .  D
C46         C137   1.360   1_554  D
C46          C84   1.439       .  S
H50         C137   1.087       .  S
O51         Cu59   2.021       .  S
O51         C429   1.278       .  A
O52         Cu59   2.007       .  S
O52         C430   1.276       .  A
O53         Cu59   2.008       .  S
O53         C431   1.276       .  A
O54         Cu59   1.997       .  S
O54         C432   1.275       .  A
O55         Cu60   1.996       .  S
O55          C64   1.275       .  A
O56         Cu60   2.006       .  S
O56          C63   1.276       .  A
O57         Cu60   2.007       .  S
O57          C62   1.276       .  A
O58         Cu60   2.021       .  S
O58          C61   1.278       .  A
Cu59       Cu428   2.380       .  S
Cu60       Cu427   2.380   1_455  S
C61         O419   1.278       .  A
C61          C77   1.444       .  S
C62         O420   1.276       .  A
C62          C83   1.432       .  S
C63         O421   1.276       .  A
C63          C82   1.433       .  S
C64         O422   1.275       .  A
C64          C80   1.425       .  S
C65          C66   1.517       .  S
C65          C71   1.515   1_554  S
C65          C69   1.517   1_455  S
C65          C79   1.458       .  S
C66          H73   1.083       .  S
C66         C159   1.370       .  D
C67          C68   1.558       .  S
C67         C158   1.370       .  D
C68          C72   1.560       .  S
C68          C70   1.558   1_455  S
C68          H74   1.107       .  S
C69         H443   1.083       .  S
C69         C162   1.369       .  D
C70         C161   1.369       .  D
C70         C397   1.502       .  S
C71         H168   1.087       .  S
C71         C164   1.362       .  D
C72         C163   1.362       .  D
C72          C78   1.446       .  S
H75         C437   1.083       .  S
H76         C163   1.087       .  S
C77          C78   1.210       .  T
C79          C80   1.200       .  T
C81          C82   1.205       .  T
C83          C84   1.204       .  T
C85         C209   1.438       .  S
C85          C86   1.207       .  T
C87         C208   1.433       .  S
C87          C88   1.205       .  T
C89          C90   1.207       .  T
C90         C207   1.438       .  S
C91         C210   1.433       .  S
C91          C92   1.205       .  T
C93          C94   1.526       .  S
C93          C99   1.527       .  S
C93         C281   1.522   1_545  S
C93         C184   1.467       .  S
C94         H101   1.087       .  S
C95         C280   1.541   1_545  S
C96         C279   1.541       .  S
C96         C284   1.544       .  S
C96          C98   1.550   1_556  S
C96         H102   1.110       .  S
C97         C277   1.522       .  S
C97         H103   1.083       .  S
C98         C159   1.502       .  S
C100        C280   1.544       .  S
C100        C181   1.443       .  S
O105       Cu113   2.014       .  S
O105        C115   1.276       .  A
O106       Cu113   2.005       .  S
O106        C300   1.276       .  A
O107       Cu113   2.013       .  S
O107        C301   1.276       .  A
O108       Cu113   2.005       .  S
O108        C118   1.276       .  A
O109       Cu114   2.010       .  S
O109        C302   1.276       .  A
O110       Cu114   2.014       .  S
O110        C117   1.277   1_545  A
O111       Cu114   2.010       .  S
O111        C116   1.276       .  A
O112       Cu114   2.015       .  S
O112        C299   1.277   1_545  A
Cu113      Cu298   2.379       .  S
Cu114      Cu297   2.379   1_545  S
C115        O296   1.277       .  A
C115        C366   1.438       .  S
C116        O290   1.276   1_545  A
C116        C363   1.433       .  S
C117        O291   1.276       .  A
C117        C361   1.438       .  S
C118        O293   1.276       .  A
C118        C367   1.433       .  S
C119        C120   1.522       .  S
C119        C125   1.527       .  S
C119        C307   1.525       .  S
C119        C180   1.467       .  S
C120        H127   1.083       .  S
C121        C306   1.550   1_554  S
C121        C530   1.502       .  S
C122        C305   1.550   1_556  S
C122        C310   1.544       .  S
C122        C124   1.540   1_566  S
C122        H128   1.109       .  S
C123        C303   1.525       .  S
C123        H129   1.087       .  S
C126        C306   1.544       .  S
C126        C178   1.443       .  S
C131        C132   1.536       .  S
C131        C137   1.535       .  S
C131        C503   1.536   1_455  S
C131        C173   1.465       .  S
C132        H139   1.086       .  S
C133        C134   1.532       .  S
C134        C138   1.526       .  S
C134        C504   1.532   1_455  S
C134        H140   1.112       .  S
C135        C499   1.536       .  S
C135        H141   1.086       .  S
C136        C502   1.532       .  S
C138        C176   1.439       .  S
O143       Cu151   2.021       .  S
O143        C521   1.278       .  A
O144       Cu151   2.007       .  S
O144        C522   1.276       .  A
O145       Cu151   2.008       .  S
O145        C523   1.276       .  A
O146       Cu151   1.997       .  S
O146        C524   1.275       .  A
O147       Cu152   1.996       .  S
O147        C156   1.275       .  A
O148       Cu152   2.006       .  S
O148        C155   1.276       .  A
O149       Cu152   2.007       .  S
O149        C154   1.276       .  A
O150       Cu152   2.021       .  S
O150        C153   1.278       .  A
Cu151      Cu520   2.380       .  S
Cu152      Cu519   2.380   1_455  S
C153        O511   1.278       .  A
C153        C169   1.444       .  S
C154        O512   1.276       .  A
C154        C175   1.432       .  S
C155        O513   1.276       .  A
C155        C174   1.433       .  S
C156        O514   1.275       .  A
C156        C172   1.425       .  S
C157        C158   1.517       .  S
C157        C163   1.515       .  S
C157        C161   1.517   1_455  S
C157        C171   1.458       .  S
C158        H165   1.083       .  S
C159        C160   1.558   1_554  S
C160        C164   1.560       .  S
C160        C162   1.558   1_456  S
C160        H166   1.107       .  S
C161        H535   1.083       .  S
C162        C489   1.502       .  S
C164        C170   1.446       .  S
H167        C529   1.083       .  S
C169        C170   1.210       .  T
C171        C172   1.200       .  T
C173        C174   1.205       .  T
C175        C176   1.204       .  T
C177        C301   1.438       .  S
C177        C178   1.207       .  T
C179        C300   1.433       .  S
C179        C180   1.205       .  T
C181        C182   1.207       .  T
C182        C299   1.438       .  S
C183        C302   1.433       .  S
C183        C184   1.205       .  T
C185        C186   1.526       .  S
C185        C191   1.527       .  S
C185        C276   1.467       .  S
C186        H193   1.087       .  S
C186        C279   1.364   1_554  D
C187        C278   1.364       .  D
C187        C317   1.464       .  S
C188        C190   1.550       .  S
C188        H194   1.109       .  S
C189        H195   1.083       .  S
C189        C282   1.374       .  D
C190        C281   1.374       .  D
C190        C251   1.502       .  S
C191        H288   1.087       .  S
C191        C284   1.363   1_554  D
C192        C283   1.363       .  D
C192        C273   1.443       .  S
H196        C283   1.087       .  S
O197       Cu205   2.014       .  S
O197        C207   1.276       .  A
O198       Cu205   2.005       .  S
O199       Cu205   2.013       .  S
O200       Cu205   2.005       .  S
O200        C210   1.276   1_565  A
O201       Cu206   2.010       .  S
O202       Cu206   2.014       .  S
O202        C209   1.277       .  A
O203       Cu206   2.010       .  S
O203        C208   1.276       .  A
O204       Cu206   2.015       .  S
C211        C212   1.522   1_545  S
C211        C217   1.527       .  S
C211        C272   1.467       .  S
C212        H219   1.083       .  S
C212        C305   1.374       .  D
C213        C304   1.374       .  D
C213        C622   1.502       .  S
C214        C216   1.540       .  S
C214        H220   1.110       .  S
C215        H221   1.087       .  S
C215        C308   1.364       .  D
C216        C307   1.364       .  D
C216        C320   1.464       .  S
C217        H314   1.087       .  S
C217        C310   1.362   1_544  D
C218        C309   1.362   1_565  D
C218        C270   1.443       .  S
H222        C309   1.087       .  S
C223        C224   1.536       .  S
C223        C229   1.535       .  S
C223        C595   1.536   1_455  S
C223        C265   1.465       .  S
C224        H231   1.086       .  S
C224        C317   1.365       .  D
C225        C226   1.532   1_556  S
C225        C316   1.365       .  D
C225        C279   1.464       .  S
C226        C230   1.526       .  S
C226        C596   1.532   1_454  S
C226        H232   1.112       .  S
C227        C591   1.536       .  S
C227        H233   1.086       .  S
C227        C320   1.365       .  D
C228        C594   1.532   1_556  S
C228        C319   1.365       .  D
C228        C308   1.464   1_556  S
C229        H326   1.087       .  S
C229        C322   1.360       .  D
C230        C321   1.360   1_554  D
C230        C268   1.439       .  S
H234        C321   1.087       .  S
O235       Cu243   2.021       .  S
O235        C613   1.278       .  A
O236       Cu243   2.007       .  S
O236        C614   1.276       .  A
O237       Cu243   2.008       .  S
O237        C615   1.276       .  A
O238       Cu243   1.997       .  S
O238        C616   1.275       .  A
O239       Cu244   1.996       .  S
O239        C248   1.275       .  A
O240       Cu244   2.006       .  S
O240        C247   1.276       .  A
O241       Cu244   2.007       .  S
O241        C246   1.276       .  A
O242       Cu244   2.021       .  S
O242        C245   1.278       .  A
Cu243      Cu612   2.380       .  S
Cu244      Cu611   2.380   1_455  S
C245        O603   1.278       .  A
C245        C261   1.444       .  S
C246        O604   1.276       .  A
C246        C267   1.432       .  S
C247        O605   1.276       .  A
C247        C266   1.433       .  S
C248        O606   1.275       .  A
C248        C264   1.425       .  S
C249        C250   1.517       .  S
C249        C255   1.515   1_554  S
C249        C253   1.517   1_455  S
C249        C263   1.458       .  S
C250        H257   1.083       .  S
C250        C343   1.370       .  D
C251        C252   1.558       .  S
C251        C342   1.370       .  D
C252        C256   1.560       .  S
C252        C254   1.558   1_455  S
C252        H258   1.107       .  S
C253        H627   1.083       .  S
C253        C346   1.369       .  D
C254        C345   1.369       .  D
C254        C581   1.502       .  S
C255        H352   1.087       .  S
C255        C348   1.362       .  D
C256        C347   1.362       .  D
C256        C262   1.446       .  S
H259        C621   1.083       .  S
H260        C347   1.087       .  S
C261        C262   1.210       .  T
C263        C264   1.200       .  T
C265        C266   1.205       .  T
C267        C268   1.204       .  T
C269        C270   1.207       .  T
C271        C272   1.205       .  T
C273        C274   1.207       .  T
C275        C276   1.205       .  T
C277        C278   1.526       .  S
C277        C283   1.527       .  S
C277        C368   1.467       .  S
C278        H285   1.087       .  S
C280        C282   1.550   1_556  S
C280        H286   1.109       .  S
C281        H287   1.083       .  S
C282        C343   1.502       .  S
C284        C365   1.443       .  S
O289       Cu297   2.014       .  S
O289        C299   1.276       .  A
O290       Cu297   2.005       .  S
O291       Cu297   2.013       .  S
O292       Cu297   2.005       .  S
O292        C302   1.276   1_565  A
O293       Cu298   2.010       .  S
O294       Cu298   2.014       .  S
O294        C301   1.277       .  A
O295       Cu298   2.010       .  S
O295        C300   1.276       .  A
O296       Cu298   2.015       .  S
C303        C304   1.522   1_545  S
C303        C309   1.527       .  S
C303        C364   1.467       .  S
C304        H311   1.083       .  S
C305        C714   1.502       .  S
C306        C308   1.540   1_556  S
C306        H312   1.109       .  S
C307        H313   1.087       .  S
C310        C362   1.443       .  S
C315        C316   1.536       .  S
C315        C321   1.535       .  S
C315        C687   1.536   1_455  S
C315        C357   1.465       .  S
C316        H323   1.086       .  S
C317        C318   1.532       .  S
C318        C322   1.526       .  S
C318        C688   1.532   1_455  S
C318        H324   1.112       .  S
C319        C683   1.536       .  S
C319        H325   1.086       .  S
C320        C686   1.532       .  S
C322        C360   1.439       .  S
O327       Cu335   2.021       .  S
O327        C705   1.278       .  A
O328       Cu335   2.007       .  S
O328        C706   1.276       .  A
O329       Cu335   2.008       .  S
O329        C707   1.276       .  A
O330       Cu335   1.997       .  S
O330        C708   1.275       .  A
O331       Cu336   1.996       .  S
O331        C340   1.275       .  A
O332       Cu336   2.006       .  S
O332        C339   1.276       .  A
O333       Cu336   2.007       .  S
O333        C338   1.276       .  A
O334       Cu336   2.021       .  S
O334        C337   1.278       .  A
Cu335      Cu704   2.380       .  S
Cu336      Cu703   2.380   1_455  S
C337        O695   1.278       .  A
C337        C353   1.444       .  S
C338        O696   1.276       .  A
C338        C359   1.432       .  S
C339        O697   1.276       .  A
C339        C358   1.433       .  S
C340        O698   1.275       .  A
C340        C356   1.425       .  S
C341        C342   1.517       .  S
C341        C347   1.515       .  S
C341        C345   1.517   1_455  S
C341        C355   1.458       .  S
C342        H349   1.083       .  S
C343        C344   1.558   1_554  S
C344        C348   1.560       .  S
C344        C346   1.558   1_456  S
C344        H350   1.107       .  S
C345        H719   1.083       .  S
C346        C673   1.502       .  S
C348        C354   1.446       .  S
H351        C713   1.083       .  S
C353        C354   1.210       .  T
C355        C356   1.200       .  T
C357        C358   1.205       .  T
C359        C360   1.204       .  T
C361        C362   1.207       .  T
C363        C364   1.205       .  T
C365        C366   1.207       .  T
C367        C368   1.205       .  T
C369        C370   1.526       .  S
C369        C375   1.527       .  S
C369        C557   1.522   1_545  S
C369        C460   1.467       .  S
C370        H377   1.087       .  S
C370        C463   1.364   1_554  D
C371        C556   1.541   1_545  S
C371        C462   1.364       .  D
C371        C501   1.464       .  S
C372        C555   1.541       .  S
C372        C560   1.544       .  S
C372        C374   1.550       .  S
C372        H378   1.109       .  S
C373        C553   1.522       .  S
C373        H379   1.083       .  S
C373        C466   1.374       .  D
C374        C465   1.374       .  D
C374        C435   1.502       .  S
C375        H472   1.087       .  S
C375        C468   1.363   1_544  D
C376        C556   1.544       .  S
C376        C467   1.363   1_565  D
C376        C457   1.443       .  S
H380        C467   1.087       .  S
O381       Cu389   2.014       .  S
O381        C391   1.276       .  A
O382       Cu389   2.005       .  S
O382        C576   1.276       .  A
O383       Cu389   2.013       .  S
O383        C577   1.276       .  A
O384       Cu389   2.005       .  S
O384        C394   1.276       .  A
O385       Cu390   2.010       .  S
O385        C578   1.276       .  A
O386       Cu390   2.014       .  S
O386        C393   1.277   1_545  A
O387       Cu390   2.010       .  S
O387        C392   1.276       .  A
O388       Cu390   2.015       .  S
O388        C575   1.277   1_545  A
Cu389      Cu574   2.379       .  S
Cu390      Cu573   2.379   1_545  S
C391        O572   1.277       .  A
C391        C642   1.438       .  S
C392        O566   1.276   1_545  A
C392        C639   1.433       .  S
C393        O567   1.276       .  A
C393        C637   1.438       .  S
C394        O569   1.276       .  A
C394        C643   1.433       .  S
C395        C396   1.522       .  S
C395        C401   1.527       .  S
C395        C583   1.525       .  S
C395        C456   1.467       .  S
C396        H403   1.083       .  S
C396        C489   1.374       .  D
C397        C582   1.550       .  S
C397        C488   1.374       .  D
C398        C581   1.550       .  S
C398        C586   1.544       .  S
C398        C400   1.540   1_565  S
C398        H404   1.109       .  S
C399        C579   1.525       .  S
C399        H405   1.087       .  S
C399        C492   1.364       .  D
C400        C491   1.364       .  D
C400        C504   1.464       .  S
C401        H498   1.087       .  S
C401        C494   1.362   1_554  D
C402        C582   1.544       .  S
C402        C493   1.362       .  D
C402        C454   1.443       .  S
H406        C493   1.087       .  S
C407        C408   1.536       .  S
C407        C413   1.535       .  S
C407        C449   1.465       .  S
C408        H415   1.086       .  S
C408        C501   1.365       .  D
C409        C410   1.532   1_556  S
C409        C500   1.365       .  D
C409        C463   1.464       .  S
C410        C414   1.526       .  S
C410        H416   1.112       .  S
C411        H417   1.086       .  S
C411        C504   1.365       .  D
C412        C503   1.365       .  D
C412        C492   1.464   1_556  S
C413        H510   1.087       .  S
C413        C506   1.360       .  D
C414        C505   1.360   1_554  D
C414        C452   1.439       .  S
H418        C505   1.087       .  S
O419       Cu427   2.021   1_455  S
O420       Cu427   2.007   1_455  S
O421       Cu427   2.008   1_455  S
O422       Cu427   1.997   1_455  S
O423       Cu428   1.996       .  S
O423        C432   1.275       .  A
O424       Cu428   2.006       .  S
O424        C431   1.276       .  A
O425       Cu428   2.007       .  S
O425        C430   1.276       .  A
O426       Cu428   2.021       .  S
O426        C429   1.278       .  A
C429        C445   1.444       .  S
C430        C451   1.432       .  S
C431        C450   1.433       .  S
C432        C448   1.425       .  S
C433        C434   1.517       .  S
C433        C439   1.515   1_554  S
C433        C437   1.517       .  S
C433        C447   1.458       .  S
C434        H441   1.083       .  S
C434        C527   1.370       .  D
C435        C436   1.558       .  S
C435        C526   1.370       .  D
C436        C440   1.560       .  S
C436        C438   1.558       .  S
C436        H442   1.107       .  S
C437        C530   1.369       .  D
C438        C529   1.369       .  D
C439        H536   1.087       .  S
C439        C532   1.362       .  D
C440        C531   1.362       .  D
C440        C446   1.446       .  S
H444        C531   1.087       .  S
C445        C446   1.210       .  T
C447        C448   1.200       .  T
C449        C450   1.205       .  T
C451        C452   1.204       .  T
C453        C577   1.438       .  S
C453        C454   1.207       .  T
C455        C576   1.433       .  S
C455        C456   1.205       .  T
C457        C458   1.207       .  T
C458        C575   1.438       .  S
C459        C578   1.433       .  S
C459        C460   1.205       .  T
C461        C462   1.526       .  S
C461        C467   1.527       .  S
C461        C649   1.522   1_545  S
C461        C552   1.467       .  S
C462        H469   1.087       .  S
C463        C648   1.541   1_545  S
C464        C647   1.541       .  S
C464        C652   1.544       .  S
C464        C466   1.550   1_556  S
C464        H470   1.110       .  S
C465        C645   1.522       .  S
C465        H471   1.083       .  S
C466        C527   1.502       .  S
C468        C648   1.544       .  S
C468        C549   1.443       .  S
O473       Cu481   2.014       .  S
O473        C483   1.276       .  A
O474       Cu481   2.005       .  S
O474        C668   1.276       .  A
O475       Cu481   2.013       .  S
O475        C669   1.276       .  A
O476       Cu481   2.005       .  S
O476        C486   1.276       .  A
O477       Cu482   2.010       .  S
O477        C670   1.276       .  A
O478       Cu482   2.014       .  S
O478        C485   1.277   1_545  A
O479       Cu482   2.010       .  S
O479        C484   1.276       .  A
O480       Cu482   2.015       .  S
O480        C667   1.277   1_545  A
Cu481      Cu666   2.379       .  S
Cu482      Cu665   2.379   1_545  S
C483        O664   1.277       .  A
C483        C734   1.438       .  S
C484        O658   1.276   1_545  A
C484        C731   1.433       .  S
C485        O659   1.276       .  A
C485        C729   1.438       .  S
C486        O661   1.276       .  A
C486        C735   1.433       .  S
C487        C488   1.522       .  S
C487        C493   1.527       .  S
C487        C675   1.525       .  S
C487        C548   1.467       .  S
C488        H495   1.083       .  S
C489        C674   1.550   1_554  S
C490        C673   1.550   1_556  S
C490        C678   1.544       .  S
C490        C492   1.540   1_566  S
C490        H496   1.109       .  S
C491        C671   1.525       .  S
C491        H497   1.087       .  S
C494        C674   1.544       .  S
C494        C546   1.443       .  S
C499        C500   1.536       .  S
C499        C505   1.535       .  S
C499        C541   1.465       .  S
C500        H507   1.086       .  S
C501        C502   1.532       .  S
C502        C506   1.526       .  S
C502        H508   1.112       .  S
C503        H509   1.086       .  S
C506        C544   1.439       .  S
O511       Cu519   2.021   1_455  S
O512       Cu519   2.007   1_455  S
O513       Cu519   2.008   1_455  S
O514       Cu519   1.997   1_455  S
O515       Cu520   1.996       .  S
O515        C524   1.275       .  A
O516       Cu520   2.006       .  S
O516        C523   1.276       .  A
O517       Cu520   2.007       .  S
O517        C522   1.276       .  A
O518       Cu520   2.021       .  S
O518        C521   1.278       .  A
C521        C537   1.444       .  S
C522        C543   1.432       .  S
C523        C542   1.433       .  S
C524        C540   1.425       .  S
C525        C526   1.517       .  S
C525        C531   1.515       .  S
C525        C529   1.517       .  S
C525        C539   1.458       .  S
C526        H533   1.083       .  S
C527        C528   1.558   1_554  S
C528        C532   1.560       .  S
C528        C530   1.558   1_556  S
C528        H534   1.107       .  S
C532        C538   1.446       .  S
C537        C538   1.210       .  T
C539        C540   1.200       .  T
C541        C542   1.205       .  T
C543        C544   1.204       .  T
C545        C669   1.438       .  S
C545        C546   1.207       .  T
C547        C668   1.433       .  S
C547        C548   1.205       .  T
C549        C550   1.207       .  T
C550        C667   1.438       .  S
C551        C670   1.433       .  S
C551        C552   1.205       .  T
C553        C554   1.526       .  S
C553        C559   1.527       .  S
C553        C644   1.467       .  S
C554        H561   1.087       .  S
C554        C647   1.364   1_554  D
C555        C646   1.364       .  D
C555        C685   1.464       .  S
C556        C558   1.550       .  S
C556        H562   1.109       .  S
C557        H563   1.083       .  S
C557        C650   1.374       .  D
C558        C649   1.374       .  D
C558        C619   1.502       .  S
C559        H656   1.087       .  S
C559        C652   1.363   1_554  D
C560        C651   1.363       .  D
C560        C641   1.443       .  S
H564        C651   1.087       .  S
O565       Cu573   2.014       .  S
O565        C575   1.276       .  A
O566       Cu573   2.005       .  S
O567       Cu573   2.013       .  S
O568       Cu573   2.005       .  S
O568        C578   1.276   1_565  A
O569       Cu574   2.010       .  S
O570       Cu574   2.014       .  S
O570        C577   1.277       .  A
O571       Cu574   2.010       .  S
O571        C576   1.276       .  A
O572       Cu574   2.015       .  S
C579        C580   1.522   1_545  S
C579        C585   1.527       .  S
C579        C640   1.467       .  S
C580        H587   1.083       .  S
C580        C673   1.374       .  D
C581        C672   1.374       .  D
C582        C584   1.540       .  S
C582        H588   1.110       .  S
C583        H589   1.087       .  S
C583        C676   1.364       .  D
C584        C675   1.364       .  D
C584        C688   1.464       .  S
C585        H682   1.087       .  S
C585        C678   1.362   1_544  D
C586        C677   1.362   1_565  D
C586        C638   1.443       .  S
H590        C677   1.087       .  S
C591        C592   1.536       .  S
C591        C597   1.535       .  S
C591        C633   1.465       .  S
C592        H599   1.086       .  S
C592        C685   1.365       .  D
C593        C594   1.532   1_556  S
C593        C684   1.365       .  D
C593        C647   1.464       .  S
C594        C598   1.526       .  S
C594        H600   1.112       .  S
C595        H601   1.086       .  S
C595        C688   1.365       .  D
C596        C687   1.365       .  D
C596        C676   1.464   1_556  S
C597        H694   1.087       .  S
C597        C690   1.360       .  D
C598        C689   1.360   1_554  D
C598        C636   1.439       .  S
H602        C689   1.087       .  S
O603       Cu611   2.021   1_455  S
O604       Cu611   2.007   1_455  S
O605       Cu611   2.008   1_455  S
O606       Cu611   1.997   1_455  S
O607       Cu612   1.996       .  S
O607        C616   1.275       .  A
O608       Cu612   2.006       .  S
O608        C615   1.276       .  A
O609       Cu612   2.007       .  S
O609        C614   1.276       .  A
O610       Cu612   2.021       .  S
O610        C613   1.278       .  A
C613        C629   1.444       .  S
C614        C635   1.432       .  S
C615        C634   1.433       .  S
C616        C632   1.425       .  S
C617        C618   1.517       .  S
C617        C623   1.515   1_554  S
C617        C621   1.517       .  S
C617        C631   1.458       .  S
C618        H625   1.083       .  S
C618        C711   1.370       .  D
C619        C620   1.558       .  S
C619        C710   1.370       .  D
C620        C624   1.560       .  S
C620        C622   1.558       .  S
C620        H626   1.107       .  S
C621        C714   1.369       .  D
C622        C713   1.369       .  D
C623        H720   1.087       .  S
C623        C716   1.362       .  D
C624        C715   1.362       .  D
C624        C630   1.446       .  S
H628        C715   1.087       .  S
C629        C630   1.210       .  T
C631        C632   1.200       .  T
C633        C634   1.205       .  T
C635        C636   1.204       .  T
C637        C638   1.207       .  T
C639        C640   1.205       .  T
C641        C642   1.207       .  T
C643        C644   1.205       .  T
C645        C646   1.526       .  S
C645        C651   1.527       .  S
C645        C736   1.467       .  S
C646        H653   1.087       .  S
C648        C650   1.550   1_556  S
C648        H654   1.110       .  S
C649        H655   1.083       .  S
C650        C711   1.502       .  S
C652        C733   1.443       .  S
O657       Cu665   2.014       .  S
O657        C667   1.276       .  A
O658       Cu665   2.005       .  S
O659       Cu665   2.013       .  S
O660       Cu665   2.005       .  S
O660        C670   1.276   1_565  A
O661       Cu666   2.010       .  S
O662       Cu666   2.014       .  S
O662        C669   1.277       .  A
O663       Cu666   2.010       .  S
O663        C668   1.276       .  A
O664       Cu666   2.015       .  S
C671        C672   1.522   1_545  S
C671        C677   1.527       .  S
C671        C732   1.467       .  S
C672        H679   1.083       .  S
C674        C676   1.540   1_556  S
C674        H680   1.109       .  S
C675        H681   1.087       .  S
C678        C730   1.443       .  S
C683        C684   1.536       .  S
C683        C689   1.535       .  S
C683        C725   1.465       .  S
C684        H691   1.086       .  S
C685        C686   1.532       .  S
C686        C690   1.526       .  S
C686        H692   1.112       .  S
C687        H693   1.086       .  S
C690        C728   1.439       .  S
O695       Cu703   2.021   1_455  S
O696       Cu703   2.007   1_455  S
O697       Cu703   2.008   1_455  S
O698       Cu703   1.997   1_455  S
O699       Cu704   1.996       .  S
O699        C708   1.275       .  A
O700       Cu704   2.006       .  S
O700        C707   1.276       .  A
O701       Cu704   2.007       .  S
O701        C706   1.276       .  A
O702       Cu704   2.021       .  S
O702        C705   1.278       .  A
C705        C721   1.444       .  S
C706        C727   1.432       .  S
C707        C726   1.433       .  S
C708        C724   1.425       .  S
C709        C710   1.517       .  S
C709        C715   1.515       .  S
C709        C713   1.517       .  S
C709        C723   1.458       .  S
C710        H717   1.083       .  S
C711        C712   1.558   1_554  S
C712        C716   1.560       .  S
C712        C714   1.558   1_556  S
C712        H718   1.107       .  S
C716        C722   1.446       .  S
C721        C722   1.210       .  T
C723        C724   1.200       .  T
C725        C726   1.205       .  T
C727        C728   1.204       .  T
C729        C730   1.207       .  T
C731        C732   1.205       .  T
C733        C734   1.207       .  T
C735        C736   1.205       .  T
