geometry optimzed in LAMMPS
_audit_creation_date              2020-11-30 
_audit_creation_method            'lammps2cif' 
_symmetry_space_group_name_H-M    'P1' 
_symmetry_Int_Tables_number       1 
_symmetry_cell_setting            triclinic 
loop_ 
_symmetry_equiv_pos_as_xyz 
  x,y,z 
_cell_length_a                    38.64476705 
_cell_length_b                    40.6060218810614 
_cell_length_c                    37.250764806869896 
_cell_angle_alpha                 89.45902992242992 
_cell_angle_beta                  90.19424365806904 
_cell_angle_gamma                 90.4010518280857 
loop_ 
_atom_site_label 
_atom_site_type_symbol 
_atom_site_fract_x 
_atom_site_fract_y 
_atom_site_fract_z 
_atom_site_charge 
O1          O  0.56217244  0.46070568  0.04266378    -0.79400
O2          O  0.56090978  0.52180681  0.46222841    -0.79400
O3          O  0.53883902  0.44755557  0.46502357    -0.79500
O4          O  0.53084109  0.56847807  0.04419643    -0.79400
O5          O  0.53253901  0.47750937  0.41521019    -0.79500
O6          O  0.56785251  0.52756162  0.04986199    -0.79400
O7          O  0.52979376  0.56638463  0.47184363    -0.79400
O8          O  0.51944903  0.42709206  0.03272998    -0.79500
C9          C  0.55028521  0.43175618  0.04274532     1.10300
C10         C  0.55746415  0.55280989  0.46058380     1.10200
C11         C  0.54591271  0.45319514  0.43162378     1.10300
C12         C  0.56075689  0.55773332  0.05246614     1.10200
O13         O  0.50273737  0.52843898  0.08808649    -0.79400
O14         O  0.47127185  0.46982401  0.45011667    -0.79500
O15         O  0.45730028  0.46434113  0.03226762    -0.79400
O16         O  0.45841804  0.53943476  0.47685122    -0.79400
O17         O  0.49313467  0.53072292  0.43234138    -0.79500
O18         O  0.49365307  0.46362663  0.07834279    -0.79400
O19         O  0.46228243  0.53970009  0.04828295    -0.79400
O20         O  0.47523075  0.42160728  0.47790934    -0.79500
Co21       Co  0.53143776  0.49525530  0.06146452     1.51500
Co22       Co  0.51823098  0.49504653  0.45956182     1.51700
Co23       Co  0.49709959  0.45881854  0.49818412     1.51600
Co24       Co  0.49502921  0.55030119  0.01002045     1.51500
O25         O  0.51112098  0.50325700  0.01186955    -1.41400
C26         C  0.47232008  0.53797906  0.08045196     1.10200
C27         C  0.46082904  0.43975948  0.45460259     1.10300
C28         C  0.46322865  0.45955010  0.06534045     1.10200
C29         C  0.46429147  0.54068843  0.44374606     1.10200
C30         C  0.56265135  0.92209444  0.07579493     0.43200
N31         N  0.55249701  0.96401212  0.04193127     0.02100
C32         C  0.41135880  0.06860395  0.05481771    -0.05800
H33         H  0.38052191  0.94311385  0.03202775     0.07600
C34         C  0.44015090  0.94833343  0.41618798    -0.06200
Co35       Co  0.49235616  0.00254754  0.06948330     0.74200
N36         N  0.42681714  0.97130937  0.04322834    -0.25300
Co37       Co  0.42779487  0.00888174  0.00490432     0.74100
C38         C  0.40796910  0.93420210  0.43000842     0.43300
N39         N  0.52498995  0.96780841  0.43701882     0.01700
N40         N  0.42475545  0.97319393  0.46471297     0.01800
N41         N  0.45422245  0.06339454  0.09596337    -0.46200
H42         H  0.51647186  0.93319685  0.11220384     0.07500
N43         N  0.45109235  0.96873223  0.06811467     0.02100
N44         N  0.43019006  0.04497058  0.46598928     0.01800
C45         C  0.41650535  0.08482146  0.43094467     0.43400
N46         N  0.55017193  0.96594156  0.46099323    -0.24800
C47         C  0.54306580  0.05932247  0.09328278    -0.05700
N48         N  0.57426239  0.93911637  0.04674584    -0.45900
N49         N  0.40775507  0.06915710  0.46165960    -0.46100
C50         C  0.57535535  0.07344328  0.07925172     0.43200
N51         N  0.45650794  0.04071217  0.07081364     0.02100
N52         N  0.55537836  0.03758011  0.46121910    -0.24800
N53         N  0.52802576  0.96450318  0.06661327    -0.25300
N54         N  0.53022527  0.03929719  0.43719206     0.01700
H55         H  0.60406114  0.06366770  0.46640542     0.07600
H56         H  0.46040816  0.07258336  0.39150690     0.07600
N57         N  0.43171275  0.04306269  0.04646891    -0.25400
N58         N  0.44844196  0.97221882  0.43933572    -0.25000
N59         N  0.55733718  0.03582761  0.04363853     0.02100
C60         C  0.41592992  0.92890608  0.07929247     0.43500
C61         C  0.57058783  0.94056009  0.45268894    -0.06200
N62         N  0.45312972  0.04372265  0.43987302    -0.25000
H63         H  0.45433058  0.94247454  0.39213549     0.07600
N64         N  0.44554245  0.94357589  0.09044156    -0.46200
H65         H  0.59388616  0.93354774  0.46689392     0.07600
C66         C  0.56663862  0.07617991  0.41993231     0.43300
C67         C  0.53205840  0.93869235  0.08881749    -0.05700
Co68       Co  0.55485663  0.00150217  0.00254883     0.73800
N69         N  0.52697910  0.94483273  0.41219132    -0.45900
C70         C  0.42649924  0.08201873  0.08770689     0.43600
N71         N  0.58250684  0.05759690  0.04857444    -0.45900
Co72       Co  0.48924004  0.00582076  0.43776810     0.73900
C73         C  0.44661161  0.06808495  0.41629412    -0.06200
C74         C  0.40348476  0.94715395  0.04811235    -0.05800
N75         N  0.53387858  0.03621163  0.06935032    -0.25300
N76         N  0.39980361  0.95101166  0.45994846    -0.46100
H77         H  0.38848410  0.07616829  0.04020376     0.07600
C78         C  0.57961999  0.06022909  0.45268015    -0.06200
Cl79       Cl  0.49126104  0.00524504  0.00383284    -0.49200
C80         C  0.55495140  0.92662474  0.42035350     0.43300
H81         H  0.52933111  0.06485501  0.11770602     0.07500
N82         N  0.53621473  0.06162347  0.41180805    -0.45900
C83         C  0.91519229  0.43092925  0.07920252     0.43200
N84         N  0.95797120  0.44443172  0.04572449     0.02100
C85         C  0.05532689  0.58861070  0.05668224    -0.05800
H86         H  0.92523723  0.61014608  0.03691658     0.07600
C87         C  0.93548730  0.54743763  0.41583904    -0.06200
Co88       Co  0.99217179  0.50618076  0.07191872     0.74200
N89         N  0.95471437  0.56553405  0.04441089    -0.25300
Co90       Co  0.99432532  0.56683105  0.00615795     0.74100
C91         C  0.91812845  0.57755500  0.42546804     0.43300
N92         N  0.96142559  0.46983801  0.44273943     0.01700
N93         N  0.95697048  0.56714352  0.46494584     0.01800
N94         N  0.05278214  0.54801318  0.09864591    -0.46200
H95         H  0.92200440  0.47667662  0.11432578     0.07500
N96         N  0.95356963  0.54188602  0.06898325     0.02100
N97         N  0.03234628  0.57009418  0.46966909     0.01800
C98         C  0.07534602  0.58432834  0.43656080     0.43400
N99         N  0.96154286  0.44639266  0.46755761    -0.24800
C100        C  0.05573195  0.46697578  0.09825257    -0.05700
N101        N  0.93418481  0.42113922  0.05088020    -0.45900
N102        N  0.05653722  0.59310420  0.46538027    -0.46100
C103        C  0.07407024  0.43785951  0.08703879     0.43200
N104        N  0.02905067  0.54381262  0.07338305     0.02100
N105        N  0.03688220  0.44954857  0.47067331    -0.24800
N106        N  0.95583039  0.46834533  0.06941772    -0.25300
N107        N  0.03702006  0.47334361  0.44626842     0.01700
H108        H  0.06760162  0.40543679  0.47675184     0.07600
H109        H  0.06775266  0.53918663  0.40012136     0.07600
N110        N  0.02992984  0.56713273  0.04848932    -0.25400
N111        N  0.95922075  0.54308217  0.44148936    -0.25000
N112        N  0.03323931  0.44726585  0.04962311     0.02100
C113        C  0.91258367  0.57445751  0.08372565     0.43500
C114        C  0.93714749  0.42389399  0.45919241    -0.06200
N115        N  0.03412227  0.54672158  0.44532410    -0.25000
H116        H  0.93243367  0.53254457  0.39210777     0.07600
N117        N  0.92880366  0.54629983  0.09292389    -0.46200
H118        H  0.93152556  0.40158907  0.47422520     0.07600
C119        C  0.07853791  0.44197057  0.43008420     0.43300
C120        C  0.92929038  0.46208540  0.09146047    -0.05700
Co121      Co  0.99759776  0.44477569  0.00744071     0.73800
N122        N  0.93779233  0.46477525  0.41749483    -0.45900
C123        C  0.07039895  0.57569747  0.08998618     0.43600
N124        N  0.05888870  0.42662695  0.05674527    -0.45900
Co125      Co  0.99796154  0.50821768  0.44350514     0.73900
C126        C  0.06050831  0.55359379  0.42312997    -0.06200
C127        C  0.92973933  0.58742349  0.05151143    -0.05800
N128        N  0.03080447  0.47085192  0.07367801    -0.25300
N129        N  0.93284129  0.58891494  0.45600547    -0.46100
H130        H  0.06204815  0.61051494  0.04143122     0.07600
C131        C  0.06233561  0.42828116  0.46266984    -0.06200
Cl132      Cl  0.99573840  0.50586514  0.00683169    -0.49200
C133        C  0.92143345  0.43628531  0.42591829     0.43300
H134        H  0.05988971  0.48219990  0.12155581     0.07500
N135        N  0.06126117  0.46966679  0.42171592    -0.45900
C136        C  0.28443209  0.29875436  0.22001958     0.46200
H137        H  0.28503237  0.30231413  0.19048659    -0.02800
C138        C  0.28276907  0.28857421  0.28897865     0.46200
H139        H  0.28180630  0.28458012  0.31848397    -0.02800
C140        C  0.31153643  0.31923421  0.24086484    -0.16500
C141        C  0.24941642  0.30701721  0.23736975    -0.16300
C142        C  0.29197175  0.26292965  0.23087311    -0.16700
C143        C  0.31020203  0.31377490  0.27723711    -0.16700
C144        C  0.24864774  0.30177106  0.27381695    -0.16200
C145        C  0.29163611  0.25758385  0.26737773    -0.16500
C146        C  0.71910210  0.27540077  0.21698539     0.46200
H147        H  0.72025819  0.26950238  0.18809549    -0.02800
C148        C  0.71763737  0.28859442  0.28502796     0.46200
H149        H  0.71744013  0.29376118  0.31417835    -0.02800
C150        C  0.69539786  0.30452819  0.22580841    -0.16500
C151        C  0.70482968  0.24677815  0.24033739    -0.16300
C152        C  0.75471308  0.28512036  0.23287183    -0.16700
C153        C  0.69462697  0.31138528  0.26187812    -0.16700
C154        C  0.70487743  0.25375183  0.27646549    -0.16200
C155        C  0.75391400  0.29201105  0.26880581    -0.16500
C156        C  0.29292985  0.71588997  0.21839021     0.46200
H157        H  0.29113669  0.72001920  0.18893538    -0.02800
C158        C  0.29619151  0.70483615  0.28721527     0.46200
H159        H  0.29842223  0.70091217  0.31657615    -0.02800
C160        C  0.31779617  0.68822460  0.22887765    -0.16500
C161        C  0.30574276  0.74586371  0.23976618    -0.16300
C162        C  0.25830400  0.70516612  0.23478913    -0.16700
C163        C  0.32026484  0.68277495  0.26523128    -0.16700
C164        C  0.30672391  0.74017072  0.27625719    -0.16200
C165        C  0.25973381  0.69879425  0.27114583    -0.16500
C166        C  0.71243407  0.72764728  0.22262112     0.46200
H167        H  0.71337553  0.72793125  0.19295895    -0.02800
C168        C  0.71252986  0.72930762  0.29226228     0.46200
H169        H  0.71260712  0.73050873  0.32204523    -0.02800
C170        C  0.68591523  0.70366236  0.23978334    -0.16500
C171        C  0.74751325  0.71821623  0.23964770    -0.16300
C172        C  0.70277935  0.76160793  0.23782942    -0.16700
C173        C  0.68615795  0.70442213  0.27682586    -0.16700
C174        C  0.74738027  0.71971732  0.27644018    -0.16200
C175        C  0.70339235  0.76221964  0.27462050    -0.16500
C176        C  0.14129992  0.63130971  0.13090239     0.19400
C177        C  0.14330905  0.66510787  0.13835152    -0.18700
C178        C  0.16771497  0.67716226  0.16302619    -0.11000
C179        C  0.19092861  0.65554039  0.18030791     0.21700
C180        C  0.18956001  0.62197002  0.17181811    -0.20300
C181        C  0.16529085  0.60999193  0.14724860    -0.11100
C182        C  0.21650214  0.66647515  0.20780183    -0.15300
C183        C  0.22857617  0.69749578  0.21075903    -0.29200
C184        C  0.11359630  0.61860951  0.10676599    -0.03400
C185        C  0.09898572  0.58879015  0.11205925    -0.40000
H186        H  0.12524559  0.68205385  0.12592638     0.12800
H187        H  0.16764684  0.70314001  0.16912486     0.12400
H188        H  0.20738304  0.60483181  0.18432827     0.11900
H189        H  0.16533709  0.58398978  0.14117665     0.12100
H190        H  0.22782928  0.64755972  0.22495420     0.14900
H191        H  0.22073299  0.71630578  0.19161621     0.13600
H192        H  0.10355477  0.63480892  0.08589191     0.11300
H193        H  0.10721028  0.57354638  0.13456277     0.13300
C194        C  0.14794830  0.61641748  0.37380802     0.19400
C195        C  0.15229844  0.61583749  0.33642210    -0.18700
C196        C  0.17924176  0.63347075  0.32001747    -0.11000
C197        C  0.20278193  0.65185522  0.34075438     0.21700
C198        C  0.19921746  0.65156776  0.37824872    -0.20300
C199        C  0.17191361  0.63427980  0.39466765    -0.11100
C200        C  0.23231639  0.66982661  0.32390446    -0.15300
C201        C  0.22978189  0.68437397  0.29133316    -0.29200
C202        C  0.11900787  0.59702198  0.38996996    -0.03400
C203        C  0.10449782  0.60392694  0.42181272    -0.40000
H204        H  0.13466164  0.60176060  0.31977937     0.12800
H205        H  0.18203519  0.63210117  0.29116039     0.12400
H206        H  0.21750137  0.66491329  0.39484880     0.11900
H207        H  0.17014722  0.63440364  0.42363245     0.12100
H208        H  0.25643258  0.67052254  0.33875657     0.14900
H209        H  0.20473252  0.68443410  0.27809514     0.13600
H210        H  0.10828627  0.57704384  0.37414310     0.11300
H211        H  0.11328402  0.62501974  0.43710059     0.13300
C212        C  0.18019429  0.35284866  0.32517532     0.19400
C213        C  0.15945493  0.38011699  0.31669813    -0.18700
C214        C  0.13800495  0.39418270  0.34253444    -0.11000
C215        C  0.13705258  0.38161828  0.37793512     0.21700
C216        C  0.15730510  0.35399028  0.38629237    -0.20300
C217        C  0.17880649  0.33988151  0.36040527    -0.11100
C218        C  0.11451407  0.39610791  0.40625725    -0.15300
C219        C  0.10380752  0.42757664  0.40502603    -0.29200
C220        C  0.20428000  0.34026378  0.29716142    -0.03400
C221        C  0.22016127  0.31079500  0.29870652    -0.40000
H222        H  0.15983907  0.39064114  0.28987191     0.12800
H223        H  0.12192302  0.41463212  0.33436479     0.12400
H224        H  0.15697748  0.34362523  0.41318503     0.11900
H225        H  0.19482374  0.31942421  0.36857482     0.12100
H226        H  0.10658106  0.38046861  0.42862221     0.14900
H227        H  0.11258137  0.44373732  0.38351873     0.13600
H228        H  0.21022587  0.35676680  0.27486910     0.11300
H229        H  0.21561444  0.29425074  0.32119737     0.13300
C230        C  0.19610496  0.35329124  0.16641673     0.19400
C231        C  0.19847181  0.38554771  0.15297729    -0.18700
C232        C  0.17218612  0.39835665  0.13138219    -0.11000
C233        C  0.14324457  0.37888513  0.12241802     0.21700
C234        C  0.14149469  0.34617991  0.13471834    -0.20300
C235        C  0.16757986  0.33351534  0.15688472    -0.11100
C236        C  0.11439938  0.39260594  0.10092315    -0.15300
C237        C  0.10389595  0.42361788  0.10579527    -0.29200
C238        C  0.22464758  0.34050406  0.18880879    -0.03400
C239        C  0.21974176  0.31916193  0.21603842    -0.40000
H240        H  0.22054999  0.40097523  0.15954171     0.12800
H241        H  0.17464486  0.42342026  0.12148589     0.12400
H242        H  0.11958775  0.33068699  0.12778578     0.11900
H243        H  0.16569258  0.30819603  0.16608732     0.12100
H244        H  0.10000997  0.37647085  0.08307598     0.14900
H245        H  0.11630420  0.43878943  0.12602868     0.13600
H246        H  0.25036397  0.35047405  0.18398161     0.11300
H247        H  0.19376747  0.31163254  0.22373666     0.13300
C248        C  0.80640769  0.33058179  0.15925092     0.19400
C249        C  0.79814859  0.35890505  0.13917647    -0.18700
C250        C  0.82304682  0.37460217  0.11796278    -0.11000
C251        C  0.85675078  0.36208489  0.11606452     0.21700
C252        C  0.86476636  0.33300190  0.13486741    -0.20300
C253        C  0.83988983  0.31744051  0.15656175    -0.11100
C254        C  0.88396036  0.37966040  0.09536627    -0.15300
C255        C  0.88670049  0.41261175  0.09634921    -0.29200
C256        C  0.77896936  0.31572998  0.18206560    -0.03400
C257        C  0.78427374  0.29478698  0.20966814    -0.40000
H258        H  0.77240943  0.36926156  0.14031941     0.12800
H259        H  0.81593880  0.39656964  0.10304231     0.12400
H260        H  0.89054759  0.32280962  0.13347196     0.11900
H261        H  0.84694412  0.29518766  0.17089087     0.12100
H262        H  0.90366939  0.36540575  0.08191037     0.14900
H263        H  0.86907618  0.42659612  0.11286792     0.13600
H264        H  0.75300022  0.32479508  0.17773687     0.11300
H265        H  0.81021447  0.28779384  0.21767572     0.13300
C266        C  0.85891055  0.37456334  0.37992380     0.19400
C267        C  0.86265090  0.34200884  0.36807534    -0.18700
C268        C  0.83764166  0.32746339  0.34570184    -0.11000
C269        C  0.80793748  0.34504089  0.33530610     0.21700
C270        C  0.80397263  0.37737621  0.34765495    -0.20300
C271        C  0.82922069  0.39209428  0.36942381    -0.11100
C272        C  0.77941850  0.32986718  0.31388608    -0.15300
C273        C  0.78384385  0.30608340  0.28927973    -0.29200
C274        C  0.88566731  0.38927906  0.40407752    -0.03400
C275        C  0.89375240  0.42161163  0.40345065    -0.40000
H276        H  0.88506191  0.32781680  0.37608756     0.12800
H277        H  0.84111663  0.30221747  0.33747284     0.12400
H278        H  0.78111070  0.39130760  0.34051995     0.11900
H279        H  0.82497230  0.41689139  0.37876324     0.12100
H280        H  0.75370437  0.33996560  0.31745571     0.14900
H281        H  0.80974598  0.29793237  0.28279767     0.13600
H282        H  0.90048624  0.37279418  0.42126179     0.11300
H283        H  0.88121065  0.43779529  0.38412460     0.13300
C284        C  0.86275560  0.64283118  0.37777120     0.19400
C285        C  0.83843628  0.66639276  0.38790605    -0.18700
C286        C  0.81608839  0.68022407  0.36231968    -0.11000
C287        C  0.81821106  0.67104061  0.32596313     0.21700
C288        C  0.84331126  0.64832330  0.31578963    -0.20300
C289        C  0.86561831  0.63465540  0.34124930    -0.11100
C290        C  0.79337868  0.68278238  0.29834571    -0.15300
C291        C  0.77624269  0.71124171  0.30085529    -0.29200
C292        C  0.88450295  0.62637410  0.40543310    -0.03400
C293        C  0.89389123  0.59486633  0.40162486    -0.40000
H294        H  0.83588279  0.67318947  0.41583051     0.12800
H295        H  0.79648195  0.69704166  0.37140946     0.12400
H296        H  0.84555077  0.64097456  0.28800424     0.11900
H297        H  0.88500399  0.61752492  0.33223819     0.12100
H298        H  0.78835013  0.66684797  0.27562126     0.14900
H299        H  0.78027225  0.72710399  0.32376021     0.13600
H300        H  0.89233152  0.63994127  0.42915977     0.11300
H301        H  0.88456705  0.58096854  0.37874219     0.13300
C302        C  0.80157588  0.66750195  0.17279653     0.19400
C303        C  0.79723896  0.63494839  0.16112706    -0.18700
C304        C  0.82236410  0.61985076  0.14005768    -0.11000
C305        C  0.85240130  0.63715761  0.12964328     0.21700
C306        C  0.85662624  0.66990648  0.14095290    -0.20300
C307        C  0.83165221  0.68488299  0.16261181    -0.11100
C308        C  0.87889407  0.62204219  0.10594080    -0.15300
C309        C  0.88537969  0.58947560  0.10598363    -0.29200
C310        C  0.77311033  0.68280129  0.19357582    -0.03400
C311        C  0.77744440  0.70665174  0.21809574    -0.40000
H312        H  0.77412815  0.62113141  0.16821382     0.12800
H313        H  0.81765852  0.59493589  0.13112585     0.12400
H314        H  0.87932934  0.68393086  0.13300492     0.11900
H315        H  0.83544942  0.71024691  0.17046686     0.12100
H316        H  0.89465797  0.63834836  0.08935287     0.14900
H317        H  0.87199661  0.57329933  0.12476811     0.13600
H318        H  0.74751540  0.67207226  0.19045843     0.11300
H319        H  0.80325261  0.71532221  0.22492734     0.13300
C320        C  0.66910046  0.17950205  0.33135738     0.19400
C321        C  0.65644463  0.14873600  0.32032218    -0.18700
C322        C  0.63737407  0.12871049  0.34384667    -0.11000
C323        C  0.63107207  0.13883719  0.37921108     0.21700
C324        C  0.64437766  0.16926415  0.39055347    -0.20300
C325        C  0.66295638  0.18960461  0.36680159    -0.11100
C326        C  0.61204657  0.11737082  0.40504970    -0.15300
C327        C  0.58504595  0.09857116  0.39497789    -0.29200
C328        C  0.68880853  0.20003530  0.30519598    -0.03400
C329        C  0.68856122  0.23316671  0.30519027    -0.40000
H330        H  0.66108214  0.14029141  0.29327336     0.12800
H331        H  0.62821694  0.10500016  0.33456542     0.12400
H332        H  0.64020066  0.17737595  0.41781090     0.11900
H333        H  0.67304642  0.21280547  0.37649349     0.12100
H334        H  0.61961194  0.11796128  0.43315867     0.14900
H335        H  0.57554463  0.09998654  0.36753165     0.13600
H336        H  0.70207174  0.18735935  0.28375153     0.11300
H337        H  0.67581878  0.24613764  0.32671920     0.13300
C338        C  0.61862377  0.13569186  0.14380332     0.19400
C339        C  0.62007266  0.13857925  0.18129769    -0.18700
C340        C  0.64255658  0.16124045  0.19748334    -0.11000
C341        C  0.66379643  0.18205670  0.17638543     0.21700
C342        C  0.66250483  0.17899386  0.13891895    -0.20300
C343        C  0.64005856  0.15631891  0.12274762    -0.11100
C344        C  0.68757508  0.20713343  0.19228186    -0.15300
C345        C  0.68272344  0.22009276  0.22496188    -0.29200
C346        C  0.59417112  0.11135289  0.12766549    -0.03400
C347        C  0.59872906  0.09844651  0.09490626    -0.40000
H348        H  0.60399697  0.12295260  0.19818782     0.12800
H349        H  0.64344069  0.16193999  0.22648047     0.12400
H350        H  0.67850477  0.19467087  0.12200941     0.11900
H351        H  0.63916051  0.15560709  0.09375167     0.12100
H352        H  0.70901921  0.21589816  0.17596603     0.14900
H353        H  0.66059281  0.21216816  0.24066175     0.13600
H354        H  0.57260068  0.10272722  0.14394167     0.11300
H355        H  0.62122632  0.10525198  0.07910563     0.13300
C356        C  0.34495277  0.19814834  0.17864444     0.19400
C357        C  0.38006973  0.18966235  0.17944337    -0.18700
C358        C  0.39341943  0.16687213  0.15535913    -0.11000
C359        C  0.37174500  0.15128965  0.13011785     0.21700
C360        C  0.33666718  0.16021868  0.12881385    -0.20300
C361        C  0.32330919  0.18326919  0.15286753    -0.11100
C362        C  0.38479297  0.12568516  0.10503074    -0.15300
C363        C  0.41398993  0.10852099  0.11116878    -0.29200
C364        C  0.33214935  0.22167537  0.20599476    -0.03400
C365        C  0.30227567  0.23843893  0.20343591    -0.40000
H366        H  0.39740881  0.20084280  0.19880857     0.12800
H367        H  0.42082275  0.16189503  0.15663099     0.12400
H368        H  0.31935784  0.14881607  0.10958647     0.11900
H369        H  0.29597256  0.18866673  0.15166262     0.12100
H370        H  0.36907741  0.11976997  0.08170377     0.14900
H371        H  0.42916677  0.11280511  0.13518930     0.13600
H372        H  0.34898397  0.22650609  0.22881069     0.11300
H373        H  0.28668454  0.23705860  0.17924687     0.13300
C374        C  0.37782357  0.14730791  0.36405709     0.19400
C375        C  0.37102521  0.14705600  0.32700962    -0.18700
C376        C  0.35190028  0.17235176  0.31085823    -0.11000
C377        C  0.33954950  0.19853043  0.33159037     0.21700
C378        C  0.34674448  0.19894439  0.36848010    -0.20300
C379        C  0.36555909  0.17361242  0.38462051    -0.11100
C380        C  0.32216576  0.22744814  0.31539750    -0.15300
C381        C  0.30377336  0.22664824  0.28470668    -0.29200
C382        C  0.39895822  0.12067597  0.38032335    -0.03400
C383        C  0.39588110  0.11148175  0.41491469    -0.40000
H384        H  0.38069452  0.12732754  0.31051871     0.12800
H385        H  0.34791666  0.17189400  0.28209696     0.12400
H386        H  0.33814565  0.21922559  0.38481988     0.11900
H387        H  0.37131475  0.17531047  0.41298536     0.12100
H388        H  0.32596320  0.25069039  0.32905704     0.14900
H389        H  0.30005033  0.20360285  0.27066666     0.13600
H390        H  0.41653262  0.10746561  0.36299728     0.11300
H391        H  0.37648044  0.12261099  0.43184266     0.13300
C392        C  0.65883303  0.81300486  0.16222492     0.19400
C393        C  0.62985283  0.80633806  0.14053805    -0.18700
C394        C  0.61485248  0.83114064  0.11940160    -0.11000
C395        C  0.62890912  0.86316865  0.11896515     0.21700
C396        C  0.65845649  0.86969632  0.13987706    -0.20300
C397        C  0.67313371  0.84498650  0.16156011    -0.11100
C398        C  0.61328151  0.89005857  0.09688696    -0.15300
C399        C  0.57883391  0.89307905  0.09298053    -0.29200
C400        C  0.67378858  0.78566451  0.18416990    -0.03400
C401        C  0.69128654  0.79004210  0.21515618    -0.40000
H402        H  0.61855684  0.78185122  0.14018998     0.12800
H403        H  0.59253903  0.82510246  0.10302129     0.12400
H404        H  0.66992590  0.89410694  0.13979021     0.11900
H405        H  0.69595801  0.85085819  0.17721038     0.12100
H406        H  0.63012666  0.90947434  0.08660347     0.14900
H407        H  0.56170148  0.87577794  0.10661649     0.13600
H408        H  0.66771668  0.76073798  0.17578735     0.11300
H409        H  0.69465668  0.81466938  0.22571827     0.13300
C410        C  0.61514783  0.86536933  0.37410027     0.19400
C411        C  0.65097959  0.86585217  0.36829219    -0.18700
C412        C  0.66583148  0.84520238  0.34289158    -0.11000
C413        C  0.64505795  0.82320891  0.32315670     0.21700
C414        C  0.60927337  0.82241635  0.32935729    -0.20300
C415        C  0.59442443  0.84311042  0.35469633    -0.11100
C416        C  0.65963416  0.80066863  0.29605953    -0.15300
C417        C  0.69240966  0.78995628  0.29713652    -0.29200
C418        C  0.60028129  0.88863650  0.40022877    -0.03400
C419        C  0.56820571  0.90078256  0.39677339    -0.40000
H420        H  0.66745290  0.88280919  0.38290731     0.12800
H421        H  0.69341432  0.84702081  0.33838713     0.12400
H422        H  0.59276853  0.80547118  0.31476574     0.11900
H423        H  0.56682785  0.84137237  0.35922487     0.12100
H424        H  0.64198213  0.79005019  0.27645510     0.14900
H425        H  0.70954617  0.79707241  0.31886735     0.13600
H426        H  0.61720131  0.89804223  0.42115669     0.11300
H427        H  0.55183264  0.89345605  0.37447417     0.13300
C428        C  0.37609321  0.86366995  0.36887428     0.19400
C429        C  0.39233056  0.83607022  0.35421059    -0.18700
C430        C  0.37324330  0.81259742  0.33504746    -0.11000
C431        C  0.33743274  0.81653151  0.32963062     0.21700
C432        C  0.32126816  0.84429497  0.34400546    -0.20300
C433        C  0.34026593  0.86749846  0.36369134    -0.11100
C434        C  0.31695475  0.79367162  0.30668898    -0.15300
C435        C  0.32511645  0.76183027  0.30219979    -0.29200
C436        C  0.39763706  0.88907769  0.38709985    -0.03400
C437        C  0.38591501  0.90847444  0.41350572    -0.40000
H438        H  0.41998488  0.83281180  0.35733436     0.12800
H439        H  0.38682669  0.79208684  0.32342967     0.12400
H440        H  0.29386250  0.84821015  0.33967627     0.11900
H441        H  0.32708270  0.88894108  0.37371052     0.12100
H442        H  0.29435335  0.80339688  0.29286914     0.14900
H443        H  0.34531994  0.75071827  0.31848790     0.13600
H444        H  0.42456325  0.89116898  0.37905927     0.11300
H445        H  0.35984546  0.90517509  0.42372793     0.13300
C446        C  0.39267372  0.85589977  0.14199978     0.19400
C447        C  0.39295391  0.85158195  0.17942240    -0.18700
C448        C  0.37535774  0.82503266  0.19543427    -0.11000
C449        C  0.35747039  0.80198701  0.17418468     0.21700
C450        C  0.35868813  0.80535922  0.13670503    -0.20300
C451        C  0.37587040  0.83213734  0.12072719    -0.09500
C452        C  0.33847653  0.77356754  0.19027317    -0.15300
C453        C  0.32252027  0.77508333  0.22231150    -0.29200
C454        C  0.41034132  0.88515130  0.12588466    -0.03400
C455        C  0.39931361  0.89942190  0.09524033    -0.40000
H456        H  0.40632075  0.86912421  0.19635746     0.12800
H457        H  0.37615173  0.82240544  0.22435998     0.12400
H458        H  0.34584645  0.78747829  0.11975204     0.11900
H459        H  0.37623877  0.83396712  0.09172831     0.12100
H460        H  0.33773269  0.75094265  0.17502610     0.14900
H461        H  0.32323681  0.79807996  0.23672661     0.13600
H462        H  0.43173837  0.89625126  0.14053990     0.11300
H463        H  0.37657388  0.88985713  0.08158496     0.13300
C464        C  0.41728845  0.58341740  0.36535376     0.19400
C465        C  0.42821648  0.60756141  0.34065673    -0.18700
C466        C  0.40408831  0.62758318  0.32305707    -0.11000
C467        C  0.36839928  0.62345560  0.32949302     0.21700
C468        C  0.35748597  0.59864850  0.35337367    -0.20300
C469        C  0.38157361  0.57861352  0.37086688    -0.11100
C470        C  0.34194856  0.64523441  0.31294698    -0.15300
C471        C  0.34692213  0.66124730  0.28172318    -0.29200
C472        C  0.44364683  0.56483753  0.38625946    -0.03400
C473        C  0.43753034  0.55453435  0.42000914    -0.40000
H474        H  0.45555297  0.61175765  0.33597152     0.12800
H475        H  0.41364183  0.64690766  0.30546051     0.12400
H476        H  0.33018057  0.59481053  0.35859445     0.11900
H477        H  0.37208980  0.55950893  0.38881413     0.12100
H478        H  0.31696551  0.64683884  0.32605541     0.14900
H479        H  0.37065048  0.65764656  0.26684932     0.13600
H480        H  0.46951848  0.56259025  0.37523360     0.11300
H481        H  0.41261848  0.55915011  0.43227904     0.13300
C482        C  0.39746678  0.58078567  0.12718643     0.19400
C483        C  0.37930573  0.60877314  0.11579266    -0.18700
C484        C  0.36045025  0.62713432  0.14023653    -0.11000
C485        C  0.35910090  0.61747409  0.17652004     0.21700
C486        C  0.37592320  0.58856909  0.18757735    -0.20300
C487        C  0.39521868  0.57042875  0.16316996    -0.11100
C488        C  0.34007470  0.63669252  0.20339113    -0.15300
C489        C  0.33639152  0.66954941  0.20113152    -0.29200
C490        C  0.41873663  0.56342164  0.10073826    -0.03400
C491        C  0.44920218  0.54937541  0.10900510    -0.40000
H492        H  0.38035674  0.61686584  0.08799788     0.12800
H493        H  0.34674352  0.64862603  0.13055928     0.12400
H494        H  0.37469086  0.58041169  0.21533336     0.11900
H495        H  0.40821947  0.54836535  0.17239900     0.12100
H496        H  0.32986182  0.62342030  0.22653394     0.14900
H497        H  0.34574403  0.68318883  0.17790692     0.13600
H498        H  0.41080795  0.56550158  0.07278647     0.11300
H499        H  0.45849564  0.54870672  0.13653325     0.13300
C500        C  0.60296062  0.62178902  0.40583971     0.19400
C501        C  0.58955300  0.64424530  0.38059171    -0.18700
C502        C  0.61143928  0.66134711  0.35694980    -0.11000
C503        C  0.64744616  0.65662860  0.35825351     0.21700
C504        C  0.66103859  0.63525406  0.38455835    -0.20300
C505        C  0.63906495  0.61779447  0.40796045    -0.11100
C506        C  0.67142923  0.67466597  0.33359856    -0.15300
C507        C  0.66233923  0.68479705  0.30029084    -0.29200
C508        C  0.57838380  0.60317744  0.42932608    -0.03400
C509        C  0.58462293  0.57270287  0.44237763    -0.40000
H510        H  0.56190815  0.64821512  0.37876592     0.12800
H511        H  0.60008007  0.67856873  0.33804548     0.12400
H512        H  0.68873531  0.63174449  0.38670956     0.11900
H513        H  0.65041324  0.60149510  0.42782890     0.12100
H514        H  0.69784854  0.67856989  0.34274212     0.14900
H515        H  0.63696942  0.67837488  0.28997939     0.13600
H516        H  0.55288081  0.61368586  0.43315039     0.11300
H517        H  0.60896065  0.56072996  0.43653704     0.13300
C518        C  0.60055226  0.62527824  0.11043158     0.19400
C519        C  0.58660794  0.64122443  0.14029384    -0.18700
C520        C  0.60821104  0.65728534  0.16480303    -0.11000
C521        C  0.64421799  0.65791236  0.15954455     0.21700
C522        C  0.65801268  0.64262277  0.12919583    -0.20300
C523        C  0.63647834  0.62635774  0.10490782    -0.11100
C524        C  0.66812257  0.67621837  0.18335922    -0.15300
C525        C  0.66166367  0.68321398  0.21794166    -0.29200
C526        C  0.57697858  0.60721126  0.08605871    -0.03400
C527        C  0.58647163  0.57952687  0.06934509    -0.40000
H528        H  0.55893953  0.64090624  0.14488869     0.12800
H529        H  0.59656256  0.66972936  0.18723819     0.12400
H530        H  0.68562647  0.64330619  0.12422790     0.11900
H531        H  0.64796960  0.61505849  0.08165394     0.12100
H532        H  0.69256182  0.68335898  0.17152558     0.14900
H533        H  0.63831477  0.67367313  0.23031491     0.13600
H534        H  0.54998938  0.61458035  0.08533897     0.11300
H535        H  0.61260940  0.57025181  0.07239723     0.13300
C536        C  0.64378010  0.36479795  0.32759977     0.19400
C537        C  0.64700790  0.36935109  0.36464609    -0.18700
C538        C  0.62789840  0.39350203  0.38171906    -0.11000
C539        C  0.60439805  0.41297638  0.36208282     0.21700
C540        C  0.60201445  0.40918660  0.32479235    -0.20300
C541        C  0.62142320  0.38514932  0.30761039    -0.11100
C542        C  0.58120917  0.43645690  0.37999084    -0.15300
C543        C  0.57038872  0.43145455  0.41380269    -0.29200
C544        C  0.66295617  0.33761353  0.31114923    -0.03400
C545        C  0.67444181  0.33868879  0.27725457    -0.40000
H546        H  0.66436635  0.35412012  0.38042452     0.12800
H547        H  0.63150272  0.39665975  0.41029808     0.12400
H548        H  0.58419336  0.42403379  0.30914526     0.11900
H549        H  0.61791583  0.38178936  0.27904375     0.12100
H550        H  0.57108724  0.45701422  0.36438650     0.14900
H551        H  0.57883375  0.41004804  0.42902996     0.13600
H552        H  0.66812379  0.31630211  0.32805282     0.11300
H553        H  0.66950131  0.36022205  0.26061522     0.13300
C554        C  0.65970828  0.34223020  0.13745159     0.19400
C555        C  0.67681190  0.35981748  0.11011833    -0.18700
C556        C  0.65830055  0.38055960  0.08694648    -0.11000
C557        C  0.62225271  0.38316365  0.08994013     0.21700
C558        C  0.60496436  0.36455871  0.11651964    -0.20300
C559        C  0.62356030  0.34438210  0.14015758    -0.11100
C560        C  0.60373311  0.40791086  0.06774825    -0.15300
C561        C  0.57048742  0.40423102  0.05778479    -0.29200
C562        C  0.68018100  0.32221112  0.16313043    -0.03400
C563        C  0.67365894  0.32215008  0.19861399    -0.40000
H564        H  0.70468138  0.35840061  0.10754442     0.12800
H565        H  0.67217359  0.39490039  0.06691283     0.12400
H566        H  0.57728049  0.36658328  0.12008609     0.11900
H567        H  0.60972296  0.33065067  0.16069191     0.12100
H568        H  0.61758695  0.43040177  0.06058814     0.14900
H569        H  0.55702071  0.38110808  0.06289962     0.13600
H570        H  0.70250030  0.30966021  0.15259134     0.11300
H571        H  0.65211451  0.33660963  0.20815266     0.13300
C572        C  0.39712908  0.38131296  0.40830715     0.19400
C573        C  0.40260035  0.35038718  0.39306290    -0.18700
C574        C  0.37864659  0.33732691  0.36895310    -0.11000
C575        C  0.34846630  0.35475992  0.36025366     0.21700
C576        C  0.34207301  0.38495414  0.37678519    -0.20300
C577        C  0.36643043  0.39837791  0.40042287    -0.11100
C578        C  0.32363650  0.34159513  0.33384526    -0.15300
C579        C  0.33463351  0.32824243  0.30322672    -0.29200
C580        C  0.42403384  0.39497109  0.43223166    -0.03400
C581        C  0.43156252  0.42727005  0.43331255    -0.40000
H582        H  0.42587132  0.33667483  0.39916895     0.12800
H583        H  0.38364529  0.31355556  0.35714766     0.12400
H584        H  0.31867816  0.39847841  0.37070282     0.11900
H585        H  0.36116209  0.42190181  0.41261960     0.12100
H586        H  0.29607887  0.34428145  0.33869731     0.14900
H587        H  0.36207511  0.32802755  0.29706565     0.13600
H588        H  0.44013838  0.37763691  0.44700508     0.11300
H589        H  0.41739712  0.44466440  0.41663652     0.13300
C590        C  0.36188019  0.37578507  0.17469925     0.19400
C591        C  0.35187220  0.39978830  0.14954188    -0.18700
C592        C  0.37656665  0.42017613  0.13312727    -0.11000
C593        C  0.41201657  0.41636629  0.14090799     0.21700
C594        C  0.42193026  0.39293572  0.16681743    -0.20300
C595        C  0.39719485  0.37268037  0.18340623    -0.11100
C596        C  0.43938324  0.43505112  0.12128255    -0.15300
C597        C  0.43476948  0.44642245  0.08758709    -0.29200
C598        C  0.33508146  0.35373874  0.19055338    -0.03400
C599        C  0.33789390  0.34132810  0.22395825    -0.40000
H600        H  0.32482037  0.40281726  0.14262979     0.12800
H601        H  0.36770544  0.43872906  0.11428748     0.12400
H602        H  0.44901363  0.38948972  0.17332227     0.11900
H603        H  0.40594991  0.35395087  0.20212713     0.12100
H604        H  0.46498496  0.43648739  0.13336545     0.14900
H605        H  0.40996918  0.44335221  0.07428166     0.13600
H606        H  0.31190110  0.34918041  0.17487844     0.11300
H607        H  0.35996589  0.34869609  0.24006620     0.13300
O608        O  0.56310683  0.46069968  0.54226036    -0.79400
O609        O  0.56019556  0.52101536  0.96252210    -0.79400
O610        O  0.53711897  0.44596425  0.96526296    -0.79500
O611        O  0.53215993  0.56859516  0.54434670    -0.79400
O612        O  0.53209640  0.47621134  0.91551621    -0.79500
O613        O  0.56915564  0.52758383  0.54999735    -0.79400
O614        O  0.52885452  0.56560578  0.97150625    -0.79400
O615        O  0.52029783  0.42733810  0.53207796    -0.79500
C616        C  0.55105629  0.43181110  0.54238410     1.10300
C617        C  0.55651361  0.55198165  0.96029992     1.10200
C618        C  0.54410380  0.45115845  0.93172842     1.10300
C619        C  0.56209995  0.55780093  0.55243566     1.10200
O620        O  0.50433647  0.52850654  0.58828901    -0.79400
O621        O  0.47093699  0.46830208  0.94989636    -0.79500
O622        O  0.45837993  0.46447629  0.53128382    -0.79400
O623        O  0.45771034  0.53838289  0.97652187    -0.79400
O624        O  0.49261771  0.52926150  0.93226516    -0.79500
O625        O  0.49438677  0.46398325  0.57772739    -0.79400
O626        O  0.46354410  0.54018276  0.54896641    -0.79400
O627        O  0.47350056  0.42079141  0.97936767    -0.79500
Co628      Co  0.53256175  0.49536210  0.56128108     1.51500
Co629      Co  0.51774077  0.49392160  0.95975468     1.51700
Co630      Co  0.49571503  0.45815337  0.99881201     1.51600
Co631      Co  0.49604337  0.55089772  0.51037559     1.51500
O632        O  0.51209380  0.50389243  0.51185900    -1.41400
C633        C  0.47394028  0.53827969  0.58104287     1.10200
C634        C  0.46000167  0.43844248  0.95503974     1.10300
C635        C  0.46403777  0.45999575  0.56445758     1.10200
C636        C  0.46372348  0.53923003  0.94347057     1.10200
C637        C  0.56603339  0.92463621  0.57783517     0.43200
N638        N  0.55373272  0.96445271  0.54182753     0.02100
C639        C  0.41266747  0.06912502  0.55445322    -0.05800
H640        H  0.38123305  0.94395841  0.53410790     0.07600
C641        C  0.44168407  0.95094755  0.91426322    -0.06200
Co642      Co  0.49372200  0.00323960  0.56914756     0.74200
N643        N  0.42782775  0.97187605  0.54446245    -0.25300
Co644      Co  0.42823350  0.00850224  0.50538000     0.74100
C645        C  0.40951397  0.93624136  0.92721198     0.43300
N646        N  0.52567769  0.97001493  0.93690869     0.01700
N647        N  0.42522836  0.97455779  0.96320051     0.01800
N648        N  0.45605735  0.06436767  0.59505265    -0.46200
H649        H  0.52026376  0.93622212  0.61464692     0.07500
N650        N  0.45233949  0.96952304  0.56911983     0.02100
N651        N  0.43043726  0.04639253  0.96662634     0.01800
C652        C  0.41825616  0.08800983  0.93341540     0.43400
N653        N  0.55066053  0.96751412  0.96103742    -0.24800
C654        C  0.54449567  0.06026274  0.59086357    -0.05700
N655        N  0.57646717  0.94052210  0.54759492    -0.45900
N656        N  0.40859666  0.07118369  0.96311113    -0.46100
C657        C  0.57650817  0.07419345  0.57610140     0.43200
N658        N  0.45802564  0.04145111  0.57013367     0.02100
N659        N  0.55588918  0.03892206  0.96321950    -0.24800
N660        N  0.52965603  0.96536220  0.56690622    -0.25300
N661        N  0.53082111  0.04125714  0.93916015     0.01700
H662        H  0.60526760  0.06382565  0.96831775     0.07600
H663        H  0.46279730  0.07676581  0.89438230     0.07600
N664        N  0.43292899  0.04351860  0.54609541    -0.25400
N665        N  0.44930014  0.97435488  0.93818878    -0.25000
N666        N  0.55817299  0.03607092  0.54147092     0.02100
C667        C  0.41684524  0.93030252  0.58126946     0.43500
C668        C  0.57158352  0.94278845  0.95165275    -0.06200
N669        N  0.45387348  0.04586456  0.94095575    -0.25000
H670        H  0.45636384  0.94568015  0.89035729     0.07600
N671        N  0.44671060  0.94481051  0.59201948    -0.46200
H672        H  0.59502324  0.93566574  0.96553700     0.07600
C673        C  0.56799323  0.07740638  0.92201403     0.43300
C674        C  0.53502064  0.94082885  0.59047806    -0.05700
Co675      Co  0.55509731  0.00094231  0.50135747     0.73800
N676        N  0.52824919  0.94815588  0.91101053    -0.45900
C677        C  0.42829190  0.08293686  0.58692037     0.43600
N678        N  0.58337857  0.05794400  0.54561774    -0.45900
Co679      Co  0.48991996  0.00795179  0.93828199     0.73900
C680        C  0.44827086  0.07130729  0.91849553    -0.06200
C681        C  0.40436935  0.94803083  0.54990400    -0.05800
N682        N  0.53509148  0.03681887  0.56752069    -0.25300
N683        N  0.40063535  0.95224926  0.95744726    -0.46100
H684        H  0.38943260  0.07635920  0.54027004     0.07600
C685        C  0.58065105  0.06110533  0.95474686    -0.06200
Cl686      Cl  0.49160136  0.00463976  0.50344110    -0.49200
C687        C  0.55642302  0.93003208  0.91846243     0.43300
H688        H  0.53104346  0.06611781  0.61536115     0.07500
N689        N  0.53727881  0.06352680  0.91390511    -0.45900
C690        C  0.91515380  0.43388757  0.58142926     0.43200
N691        N  0.95805097  0.44719461  0.54803724     0.02100
C692        C  0.05274915  0.59314946  0.55878309    -0.05800
H693        H  0.92020963  0.60980079  0.53543985     0.07600
C694        C  0.93781932  0.54610834  0.91369136    -0.06200
Co695      Co  0.99152761  0.50939363  0.57362955     0.74200
N696        N  0.95270856  0.56755680  0.54531876    -0.25300
Co697      Co  0.99250182  0.56974404  0.50745749     0.74100
C698        C  0.92099554  0.57654597  0.92310782     0.43300
N699        N  0.96196477  0.46792000  0.94062152     0.01700
N700        N  0.95883663  0.56506731  0.96339705     0.01800
N701        N  0.05084041  0.55228371  0.60044609    -0.46200
H702        H  0.92155634  0.47995870  0.61606690     0.07500
N703        N  0.95218453  0.54416378  0.57016974     0.02100
N704        N  0.03431976  0.56668712  0.96867481     0.01800
C705        C  0.07797934  0.58058860  0.93642934     0.43400
N706        N  0.96169944  0.44434231  0.96529498    -0.24800
C707        C  0.05594988  0.47078818  0.60020388    -0.05700
N708        N  0.93432069  0.42388458  0.55331639    -0.45900
N709        N  0.05900974  0.58927437  0.96510924    -0.46100
C710        C  0.07444900  0.44164198  0.58899412     0.43200
N711        N  0.02758237  0.54760439  0.57486338     0.02100
N712        N  0.03711108  0.44640192  0.96873162    -0.24800
N713        N  0.95572679  0.47124080  0.57151824    -0.25300
N714        N  0.03755769  0.47032987  0.94449841     0.01700
H715        H  0.06786187  0.40229434  0.97496237     0.07600
H716        H  0.07012477  0.53605012  0.89918879     0.07600
N717        N  0.02807285  0.57100781  0.55004068    -0.25400
N718        N  0.96097671  0.54113402  0.93976458    -0.25000
N719        N  0.03336691  0.45089083  0.55168305     0.02100
C720        C  0.90851985  0.57418185  0.58259230     0.43500
C721        C  0.93684802  0.42236326  0.95691829    -0.06200
N722        N  0.03595383  0.54357203  0.94405558    -0.25000
H723        H  0.93497496  0.53146676  0.88974752     0.07600
N724        N  0.92624462  0.54725499  0.59298530    -0.46200
H725        H  0.93078581  0.40013135  0.97189611     0.07600
C726        C  0.07928029  0.43912423  0.92867963     0.43300
C727        C  0.92906839  0.46515009  0.59345158    -0.05700
Co728      Co  0.99757042  0.44770596  0.50961155     0.73800
N729        N  0.93815018  0.46342833  0.91541848    -0.45900
C730        C  0.06775032  0.58044384  0.59230943     0.43600
N731        N  0.05912448  0.43038792  0.55879661    -0.45900
Co732      Co  0.99911475  0.50570454  0.94177026     0.73900
C733        C  0.06276039  0.55027870  0.92229040    -0.06200
C734        C  0.92601861  0.58787879  0.55096192    -0.05800
N735        N  0.03085164  0.47453479  0.57567447    -0.25300
N736        N  0.93539247  0.58741174  0.95407109    -0.46100
H737        H  0.05902094  0.61534051  0.54382374     0.07600
C738        C  0.06267038  0.42517228  0.96091155    -0.06200
Cl739      Cl  0.99495104  0.50874990  0.50854888    -0.49200
C740        C  0.92128358  0.43520030  0.92380836     0.43300
H741        H  0.06006350  0.48602850  0.62350436     0.07500
N742        N  0.06208193  0.46682016  0.92025770    -0.45900
C743        C  0.28659692  0.29920349  0.71854673     0.46200
H744        H  0.28769413  0.30267516  0.68903909    -0.02800
C745        C  0.28366566  0.28893516  0.78740035     0.46200
H746        H  0.28194528  0.28497095  0.81685863    -0.02800
C747        C  0.31331014  0.31973175  0.73997628    -0.16500
C748        C  0.25121545  0.30749521  0.73513613    -0.16300
C749        C  0.29402894  0.26334623  0.72962647    -0.16700
C750        C  0.31137279  0.31408837  0.77631634    -0.16700
C751        C  0.24991518  0.30208653  0.77154345    -0.16200
C752        C  0.29286902  0.25795111  0.76615691    -0.16500
C753        C  0.72001925  0.27494785  0.71579704     0.46200
H754        H  0.72155348  0.26966398  0.68679073    -0.02800
C755        C  0.71760442  0.28682161  0.78412724     0.46200
H756        H  0.71676213  0.29165050  0.81337757    -0.02800
C757        C  0.69684035  0.30435955  0.72490917    -0.16500
C758        C  0.70469530  0.24622148  0.73815720    -0.16300
C759        C  0.75555069  0.28346503  0.73257550    -0.16700
C760        C  0.69559176  0.31052023  0.76108913    -0.16700
C761        C  0.70431641  0.25238466  0.77445654    -0.16200
C762        C  0.75422147  0.28973501  0.76862081    -0.16500
C763        C  0.29498871  0.71637742  0.72032746     0.46200
H764        H  0.29360608  0.72084092  0.69090374    -0.02800
C765        C  0.29749246  0.70461933  0.78912079     0.46200
H766        H  0.29928063  0.70035319  0.81847835    -0.02800
C767        C  0.31964280  0.68849566  0.73082402    -0.16500
C768        C  0.30725674  0.74614512  0.74236963    -0.16300
C769        C  0.26018820  0.70569157  0.73613084    -0.16700
C770        C  0.32166044  0.68270489  0.76713544    -0.16700
C771        C  0.30836780  0.73991486  0.77873527    -0.16200
C772        C  0.26112944  0.69926298  0.77245600    -0.16500
C773        C  0.71289961  0.72807551  0.72241897     0.46200
H774        H  0.71451888  0.72855953  0.69278099    -0.02800
C775        C  0.71157308  0.72907734  0.79202349     0.46200
H776        H  0.71093040  0.72992991  0.82181536    -0.02800
C777        C  0.68551347  0.70455406  0.73860892    -0.16500
C778        C  0.74727680  0.71775951  0.74014464    -0.16300
C779        C  0.70380614  0.76206264  0.73760640    -0.16700
C780        C  0.68492919  0.70492411  0.77561197    -0.16700
C781        C  0.74661981  0.71871657  0.77696479    -0.16200
C782        C  0.70350987  0.76242442  0.77444262    -0.16500
C783        C  0.13786550  0.63563858  0.63578931     0.19400
C784        C  0.14029884  0.66914046  0.64463812    -0.18700
C785        C  0.16595560  0.68031870  0.66845233    -0.11000
C786        C  0.18986826  0.65810925  0.68359079     0.21700
C787        C  0.18775841  0.62481611  0.67416862    -0.20300
C788        C  0.16237675  0.61372912  0.65032801    -0.11100
C789        C  0.21674085  0.66818255  0.71003109    -0.15300
C790        C  0.23041343  0.69866930  0.71195184    -0.29200
C791        C  0.10963453  0.62390167  0.61159104    -0.03400
C792        C  0.09612865  0.59339690  0.61479104    -0.40000
H793        H  0.12183397  0.68655018  0.63374078     0.12800
H794        H  0.16646298  0.70608949  0.67556818     0.12400
H795        H  0.20601834  0.60725166  0.68518624     0.11900
H796        H  0.16220319  0.58796433  0.64320173     0.12100
H797        H  0.22743397  0.64903347  0.72732588     0.14900
H798        H  0.22318656  0.71741187  0.69243773     0.13600
H799        H  0.09863154  0.64105624  0.59219989     0.11300
H800        H  0.10515808  0.57712446  0.63606341     0.13300
C801        C  0.14724665  0.61711922  0.87272862     0.19400
C802        C  0.14904398  0.62062125  0.83526232    -0.18700
C803        C  0.17579672  0.63882568  0.81924511    -0.11000
C804        C  0.20164143  0.65370509  0.84045923     0.21700
C805        C  0.20003154  0.64999168  0.87789382    -0.20300
C806        C  0.17303647  0.63207866  0.89395318    -0.11100
C807        C  0.23203179  0.67065775  0.82409190    -0.15300
C808        C  0.23027856  0.68656075  0.79231799    -0.29200
C809        C  0.11911443  0.59646913  0.88853199    -0.03400
C810        C  0.10685098  0.60060291  0.92192603    -0.40000
H811        H  0.12979120  0.60899970  0.81827831     0.12800
H812        H  0.17682450  0.64016653  0.79023512     0.12400
H813        H  0.21995154  0.66071679  0.89475175     0.11900
H814        H  0.17311160  0.62915972  0.92283762     0.12100
H815        H  0.25643765  0.66894271  0.83836160     0.14900
H816        H  0.20523574  0.68899319  0.77934357     0.13600
H817        H  0.10695465  0.57823313  0.87135241     0.11300
H818        H  0.11684124  0.62027856  0.93861289     0.13300
C819        C  0.18272933  0.35288263  0.82379384     0.19400
C820        C  0.15960569  0.37824351  0.81526254    -0.18700
C821        C  0.13835973  0.39169215  0.84159442    -0.11000
C822        C  0.14019763  0.38057306  0.87752662     0.21700
C823        C  0.16317268  0.35501303  0.88606228    -0.20300
C824        C  0.18438689  0.34142713  0.85960926    -0.11100
C825        C  0.11767184  0.39447896  0.90613209    -0.15300
C826        C  0.10495798  0.42517684  0.90388159    -0.29200
C827        C  0.20615010  0.34068122  0.79518049    -0.03400
C828        C  0.22124187  0.31091354  0.79609100    -0.40000
H829        H  0.15780693  0.38758111  0.78798929     0.12800
H830        H  0.12016966  0.41045334  0.83340099     0.12400
H831        H  0.16510690  0.34588449  0.91339919     0.11900
H832        H  0.20260010  0.32262214  0.86761600     0.12100
H833        H  0.11138602  0.37916207  0.92930426     0.14900
H834        H  0.11252001  0.44109984  0.88167915     0.13600
H835        H  0.21211245  0.35746757  0.77313821     0.11300
H836        H  0.21621837  0.29415352  0.81832204     0.13300
C837        C  0.19755470  0.35383600  0.66384179     0.19400
C838        C  0.20070149  0.38581043  0.64963201    -0.18700
C839        C  0.17378654  0.39961940  0.62954507    -0.11000
C840        C  0.14350152  0.38135250  0.62264364     0.21700
C841        C  0.14091134  0.34887858  0.63556727    -0.20300
C842        C  0.16754867  0.33530358  0.65637979    -0.11100
C843        C  0.11435253  0.39586910  0.60217127    -0.15300
C844        C  0.10439404  0.42703404  0.60748948    -0.29200
C845        C  0.22646754  0.34017619  0.68532689    -0.03400
C846        C  0.22163732  0.31979171  0.71350641    -0.40000
H847        H  0.22383780  0.40031925  0.65458657     0.12800
H848        H  0.17676685  0.42446995  0.61914971     0.12400
H849        H  0.11794574  0.33427588  0.63017423     0.11900
H850        H  0.16486783  0.31023349  0.66618329     0.12100
H851        H  0.09933448  0.38009282  0.58449503     0.14900
H852        H  0.11749519  0.44192801  0.62750955     0.13600
H853        H  0.25236963  0.34908547  0.67930302     0.11300
H854        H  0.19558404  0.31344689  0.72209206     0.13300
C855        C  0.80861899  0.33075865  0.66159329     0.19400
C856        C  0.80001242  0.35901250  0.64158447    -0.18700
C857        C  0.82496854  0.37570264  0.62141498    -0.11000
C858        C  0.85915474  0.36431025  0.62054410     0.21700
C859        C  0.86769451  0.33546941  0.63956192    -0.20300
C860        C  0.84269806  0.31886247  0.66017663    -0.11100
C861        C  0.88612525  0.38235127  0.60000572    -0.15300
C862        C  0.88704649  0.41538540  0.59892714    -0.29200
C863        C  0.78085257  0.31487088  0.68308042    -0.03400
C864        C  0.78561761  0.29328627  0.71016948    -0.40000
H865        H  0.77385663  0.36846916  0.64182647     0.12800
H866        H  0.81741468  0.39740073  0.60627680     0.12400
H867        H  0.89387502  0.32614472  0.63895914     0.11900
H868        H  0.85012998  0.29677024  0.67459150     0.12100
H869        H  0.90698954  0.36847951  0.58800632     0.14900
H870        H  0.86836220  0.42941402  0.61409083     0.13600
H871        H  0.75490281  0.32380099  0.67830651     0.11300
H872        H  0.81137625  0.28612023  0.71860482     0.13300
C873        C  0.85875283  0.37339670  0.87851048     0.19400
C874        C  0.86270547  0.34078923  0.86698473    -0.18700
C875        C  0.83760364  0.32582725  0.84513730    -0.11000
C876        C  0.80763771  0.34307415  0.83492689     0.21700
C877        C  0.80343797  0.37546369  0.84701115    -0.20300
C878        C  0.82877547  0.39059071  0.86829728    -0.11100
C879        C  0.77927391  0.32762687  0.81363596    -0.15300
C880        C  0.78388569  0.30340938  0.78963536    -0.29200
C881        C  0.88556732  0.38839498  0.90223174    -0.03400
C882        C  0.89353845  0.42072428  0.90136297    -0.40000
H883        H  0.88535659  0.32687607  0.87485240     0.12800
H884        H  0.84127861  0.30054799  0.83713834     0.12400
H885        H  0.78036813  0.38913264  0.83998874     0.11900
H886        H  0.82441926  0.41542587  0.87746898     0.12100
H887        H  0.75358891  0.33797620  0.81656785     0.14900
H888        H  0.80978177  0.29490921  0.78369216     0.13600
H889        H  0.90055849  0.37203399  0.91939375     0.11300
H890        H  0.88087749  0.43687061  0.88207875     0.13300
C891        C  0.86568633  0.64250140  0.87594711     0.19400
C892        C  0.83995970  0.66430559  0.88693716    -0.18700
C893        C  0.81712946  0.67816397  0.86183265    -0.11000
C894        C  0.82011082  0.67090807  0.82502052     0.21700
C895        C  0.84669639  0.65001885  0.81399122    -0.20300
C896        C  0.86941385  0.63616422  0.83906142    -0.11100
C897        C  0.79473832  0.68266968  0.79774338    -0.15300
C898        C  0.77506467  0.70953209  0.80194621    -0.29200
C899        C  0.88768818  0.62575070  0.90324163    -0.03400
C900        C  0.89774027  0.59453082  0.89865778    -0.40000
H901        H  0.83665005  0.66959506  0.91517260     0.12800
H902        H  0.79649340  0.69343891  0.87165780     0.12400
H903        H  0.84968435  0.64412359  0.78586089     0.11900
H904        H  0.88973118  0.62027798  0.82952973     0.12100
H905        H  0.79154202  0.66787440  0.77384212     0.14900
H906        H  0.77735398  0.72398217  0.82616288     0.13600
H907        H  0.89453977  0.63863126  0.92772549     0.11300
H908        H  0.88928553  0.58126807  0.87497531     0.13300
C909        C  0.79852655  0.66503993  0.67357685     0.19400
C910        C  0.79333221  0.63267194  0.66164096    -0.18700
C911        C  0.81721157  0.61783289  0.63891284    -0.11000
C912        C  0.84670169  0.63528497  0.62724695     0.21700
C913        C  0.85169325  0.66781491  0.63875781    -0.20300
C914        C  0.82802648  0.68252180  0.66196623    -0.11100
C915        C  0.87236777  0.62040592  0.60271644    -0.15300
C916        C  0.88018996  0.58820862  0.60388281    -0.29200
C917        C  0.77135869  0.68022426  0.69598591    -0.03400
C918        C  0.77659905  0.70540743  0.71861894    -0.40000
H919        H  0.77055659  0.61884238  0.66979983     0.12800
H920        H  0.81211565  0.59300695  0.62987669     0.12400
H921        H  0.87408365  0.68183094  0.62988481     0.11900
H922        H  0.83240363  0.70776882  0.66991705     0.12100
H923        H  0.88724508  0.63682131  0.58538923     0.14900
H924        H  0.86768778  0.57207125  0.62336764     0.13600
H925        H  0.74584080  0.66891175  0.69515979     0.11300
H926        H  0.80240103  0.71514698  0.72345377     0.13300
C927        C  0.66941965  0.17721929  0.82847721     0.19400
C928        C  0.65409207  0.14754289  0.81750566    -0.18700
C929        C  0.63641154  0.12748054  0.84213619    -0.11000
C930        C  0.63420653  0.13649735  0.87843662     0.21700
C931        C  0.65043692  0.16565845  0.88962533    -0.20300
C932        C  0.66761911  0.18604162  0.86485220    -0.11100
C933        C  0.61577026  0.11547950  0.90512173    -0.15300
C934        C  0.58670831  0.09902214  0.89659967    -0.29200
C935        C  0.68766431  0.19796774  0.80145957    -0.03400
C936        C  0.68812434  0.23108543  0.80263350    -0.40000
H937        H  0.65550156  0.14004673  0.78972768     0.12800
H938        H  0.62497050  0.10466728  0.83284920     0.12400
H939        H  0.64945664  0.17285938  0.91752774     0.11900
H940        H  0.67999403  0.20831546  0.87435294     0.12100
H941        H  0.62533008  0.11475424  0.93257922     0.14900
H942        H  0.57561130  0.10181827  0.86992077     0.13600
H943        H  0.69960723  0.18552112  0.77905776     0.11300
H944        H  0.67659378  0.24349591  0.82527929     0.13300
C945        C  0.61938173  0.13653026  0.64007429     0.19400
C946        C  0.62248369  0.13793329  0.67753744    -0.18700
C947        C  0.64469720  0.16079022  0.69361434    -0.11000
C948        C  0.66387645  0.18327915  0.67246775     0.21700
C949        C  0.66086035  0.18180645  0.63497790    -0.20300
C950        C  0.63870112  0.15885000  0.61887979    -0.11100
C951        C  0.68743775  0.20824315  0.68862353    -0.15300
C952        C  0.68250848  0.22026396  0.72170010    -0.29200
C953        C  0.59538370  0.11188624  0.62415754    -0.03400
C954        C  0.59967662  0.09954867  0.59115146    -0.40000
H955        H  0.60800767  0.12094981  0.69444625     0.12800
H956        H  0.64710666  0.16033622  0.72254096     0.12400
H957        H  0.67529835  0.19883815  0.61809393     0.11900
H958        H  0.63633731  0.15912524  0.58994285     0.12100
H959        H  0.70876510  0.21741183  0.67241122     0.14900
H960        H  0.66023356  0.21197358  0.73699216     0.13600
H961        H  0.57453137  0.10242484  0.64088897     0.11300
H962        H  0.62164836  0.10709400  0.57492368     0.13300
C963        C  0.34613553  0.19681793  0.67952064     0.19400
C964        C  0.36608414  0.17026821  0.69176137    -0.18700
C965        C  0.37898342  0.14720605  0.66776319    -0.11000
C966        C  0.37287126  0.15053466  0.63062892     0.21700
C967        C  0.35266425  0.17699031  0.61831593    -0.20300
C968        C  0.33952387  0.20004766  0.64245810    -0.11100
C969        C  0.38647454  0.12625334  0.60452155    -0.15300
C970        C  0.41537457  0.10880674  0.61090388    -0.29200
C971        C  0.33385259  0.22097297  0.70627409    -0.03400
C972        C  0.30501808  0.23906198  0.70231763    -0.40000
H973        H  0.37141825  0.16713456  0.72015791     0.12800
H974        H  0.39329801  0.12655765  0.67856773     0.12400
H975        H  0.34744772  0.18007439  0.58989474     0.11900
H976        H  0.32489515  0.22062342  0.63194343     0.12100
H977        H  0.37267893  0.12305688  0.57932622     0.14900
H978        H  0.43045863  0.11324115  0.63501308     0.13600
H979        H  0.34902084  0.22339128  0.73071541     0.11300
H980        H  0.29011006  0.23790071  0.67764271     0.13300
C981        C  0.37842356  0.14977370  0.86654888     0.19400
C982        C  0.37004254  0.14775525  0.82993978    -0.18700
C983        C  0.35016822  0.17219468  0.81324975    -0.11000
C984        C  0.33865321  0.19937581  0.83292582     0.21700
C985        C  0.34712342  0.20137862  0.86951566    -0.20300
C986        C  0.36670070  0.17684346  0.88623486    -0.11100
C987        C  0.32133598  0.22791721  0.81572584    -0.15300
C988        C  0.30414168  0.22698376  0.78422090    -0.29200
C989        C  0.40036505  0.12390509  0.88310564    -0.03400
C990        C  0.39813510  0.11532807  0.91793955    -0.40000
H991        H  0.37911320  0.12729624  0.81415187     0.12800
H992        H  0.34511146  0.17029010  0.78477472     0.12400
H993        H  0.33912303  0.22238597  0.88508660     0.11900
H994        H  0.37349920  0.17971935  0.91423950     0.12100
H995        H  0.32483558  0.25129939  0.82915399     0.14900
H996        H  0.30071961  0.20389114  0.77022570     0.13600
H997        H  0.41728662  0.11013804  0.86559518     0.11300
H998        H  0.37927811  0.12691824  0.93516278     0.13300
C999        C  0.66229077  0.81406766  0.66115121     0.19400
C1000       C  0.63216680  0.80847727  0.64087416    -0.18700
C1001       C  0.61769544  0.83363494  0.61991795    -0.11000
C1002       C  0.63335688  0.86495760  0.61822183     0.21700
C1003       C  0.66435522  0.87024228  0.63724740    -0.20300
C1004       C  0.67854810  0.84514883  0.65883302    -0.11100
C1005       C  0.61747453  0.89228105  0.59697021    -0.15300
C1006       C  0.58295111  0.89636999  0.59571228    -0.29200
C1007       C  0.67614338  0.78654346  0.68355068    -0.03400
C1008       C  0.69382753  0.79072274  0.71446566    -0.40000
H1009       H  0.61942414  0.78463539  0.64169759     0.12800
H1010       H  0.59432036  0.82846497  0.60482516     0.12400
H1011       H  0.67717644  0.89402197  0.63601254     0.11900
H1012       H  0.70234253  0.85000289  0.67331650     0.12100
H1013       H  0.63429563  0.91068902  0.58465021     0.14900
H1014       H  0.56634976  0.88003374  0.61131794     0.13600
H1015       H  0.66877616  0.76174515  0.67577546     0.11300
H1016       H  0.69843183  0.81537336  0.72449762     0.13300
C1017       C  0.61713551  0.87105534  0.86874790     0.19400
C1018       C  0.65323272  0.86860158  0.86601435    -0.18700
C1019       C  0.66819845  0.84756694  0.84103636    -0.11000
C1020       C  0.64723579  0.82825479  0.81842043     0.21700
C1021       C  0.61118108  0.83085549  0.82094614    -0.20300
C1022       C  0.59621672  0.85172714  0.84601595    -0.11100
C1023       C  0.66188591  0.80482610  0.79228800    -0.15300
C1024       C  0.69273874  0.79033040  0.79693490    -0.29200
C1025       C  0.60236685  0.89375274  0.89571197    -0.03400
C1026       C  0.57008977  0.90564166  0.89336900    -0.40000
H1027       H  0.66995040  0.88324473  0.88308768     0.12800
H1028       H  0.69611613  0.84680151  0.83928867     0.12400
H1029       H  0.59447676  0.81611130  0.80395825     0.11900
H1030       H  0.56831574  0.85200483  0.84781779     0.12100
H1031       H  0.64534798  0.79675863  0.77034921     0.14900
H1032       H  0.70784534  0.79496765  0.82097083     0.13600
H1033       H  0.61926546  0.90234604  0.91708682     0.11300
H1034       H  0.55345941  0.89924206  0.87098089     0.13300
C1035       C  0.37938620  0.86548639  0.86606182     0.19400
C1036       C  0.39512682  0.83658971  0.85399722    -0.18700
C1037       C  0.37558404  0.81222309  0.83667600    -0.11000
C1038       C  0.33988026  0.81660597  0.83061263     0.21700
C1039       C  0.32445099  0.84586336  0.84199965    -0.20300
C1040       C  0.34386758  0.86997522  0.85967415    -0.11100
C1041       C  0.31857869  0.79285897  0.80968478    -0.15300
C1042       C  0.32705808  0.76120439  0.80474493    -0.29200
C1043       C  0.40070854  0.89117643  0.88389521    -0.03400
C1044       C  0.38826333  0.91045530  0.91001608    -0.40000
H1045       H  0.42260745  0.83285441  0.85804656     0.12800
H1046       H  0.38874675  0.79057898  0.82717292     0.12400
H1047       H  0.29723775  0.85022452  0.83691619     0.11900
H1048       H  0.33119933  0.89245771  0.86753646     0.12100
H1049       H  0.29512990  0.80204000  0.79699634     0.14900
H1050       H  0.34821547  0.75024132  0.81975776     0.13600
H1051       H  0.42776260  0.89330161  0.87632302     0.11300
H1052       H  0.36206085  0.90680280  0.91974383     0.13300
C1053       C  0.38943396  0.86080711  0.64619047     0.19400
C1054       C  0.38505429  0.85906537  0.68350323    -0.18700
C1055       C  0.36763957  0.83234179  0.69931376    -0.11000
C1056       C  0.35450859  0.80661766  0.67796666     0.21700
C1057       C  0.35944377  0.80814912  0.64071918    -0.20300
C1058       C  0.37658788  0.83496763  0.62492508    -0.09500
C1059       C  0.33763156  0.77686711  0.69370083    -0.15300
C1060       C  0.32145017  0.77677043  0.72557685    -0.29200
C1061       C  0.40804379  0.88942900  0.63012571    -0.03400
C1062       C  0.39986786  0.90128317  0.59747911    -0.40000
H1063       H  0.39507984  0.87847876  0.70045398     0.12800
H1064       H  0.36547663  0.83155685  0.72824414     0.12400
H1065       H  0.35011945  0.78842137  0.62377554     0.11900
H1066       H  0.38041011  0.83502880  0.59615550     0.12100
H1067       H  0.33919274  0.75424132  0.67853025     0.14900
H1068       H  0.31957798  0.79954828  0.74016087     0.13600
H1069       H  0.42740881  0.90211858  0.64619938     0.11300
H1070       H  0.37867819  0.89035112  0.58242786     0.13300
C1071       C  0.41686294  0.57979335  0.86429710     0.19400
C1072       C  0.42822573  0.60388923  0.83983388    -0.18700
C1073       C  0.40451412  0.62490165  0.82312239    -0.11000
C1074       C  0.36880839  0.62171289  0.83013742     0.21700
C1075       C  0.35745620  0.59684713  0.85371989    -0.20300
C1076       C  0.38114904  0.57588791  0.87040477    -0.11100
C1077       C  0.34277892  0.64432185  0.81427514    -0.15300
C1078       C  0.34815156  0.66103931  0.78359086    -0.29200
C1079       C  0.44280425  0.56083623  0.88510036    -0.03400
C1080       C  0.43712883  0.55285674  0.91958363    -0.40000
H1081       H  0.45561640  0.60740898  0.83486033     0.12800
H1082       H  0.41449429  0.64423564  0.80581274     0.12400
H1083       H  0.33014023  0.59372735  0.85939139     0.11900
H1084       H  0.37146279  0.55689267  0.88839305     0.12100
H1085       H  0.31770595  0.64583191  0.82722454     0.14900
H1086       H  0.37197656  0.65769482  0.76882782     0.13600
H1087       H  0.46816096  0.55682726  0.87345511     0.11300
H1088       H  0.41277083  0.55925249  0.93209272     0.13300
C1089       C  0.40012501  0.58156556  0.62931088     0.19400
C1090       C  0.38033946  0.60850205  0.61780446    -0.18700
C1091       C  0.36132653  0.62660945  0.64232445    -0.11000
C1092       C  0.36147206  0.61779236  0.67884186     0.21700
C1093       C  0.38003382  0.58997429  0.69019579    -0.20300
C1094       C  0.39948261  0.57207359  0.66567848    -0.11100
C1095       C  0.34216230  0.63686188  0.70557222    -0.15300
C1096       C  0.33831260  0.66971921  0.70315642    -0.29200
C1097       C  0.42109520  0.56434920  0.60241359    -0.03400
C1098       C  0.45138943  0.54973793  0.61004813    -0.40000
H1099       H  0.38012076  0.61594677  0.58978214     0.12800
H1100       H  0.34630123  0.64726478  0.63258291     0.12400
H1101       H  0.37998464  0.58250052  0.71820356     0.11900
H1102       H  0.41371533  0.55080989  0.67515745     0.12100
H1103       H  0.33197201  0.62351635  0.72866638     0.14900
H1104       H  0.34771058  0.68324872  0.67986293     0.13600
H1105       H  0.41289609  0.56673525  0.57456982     0.11300
H1106       H  0.46107756  0.54859232  0.63740862     0.13300
C1107       C  0.60060757  0.61947789  0.90208720     0.19400
C1108       C  0.58704196  0.64170411  0.87664952    -0.18700
C1109       C  0.60884356  0.65905710  0.85308947    -0.11000
C1110       C  0.64492201  0.65476639  0.85463404     0.21700
C1111       C  0.65857036  0.63320347  0.88069252    -0.20300
C1112       C  0.63673377  0.61561074  0.90405823    -0.11100
C1113       C  0.66909825  0.67354615  0.83083376    -0.15300
C1114       C  0.66031843  0.68525771  0.79809239    -0.29200
C1115       C  0.57622471  0.60116436  0.92612277    -0.03400
C1116       C  0.58330469  0.57168120  0.94132746    -0.40000
H1117       H  0.55936805  0.64550687  0.87481618     0.12800
H1118       H  0.59735885  0.67626351  0.83425993     0.12400
H1119       H  0.68629016  0.62987358  0.88291452     0.11900
H1120       H  0.64830421  0.59948332  0.92393302     0.12100
H1121       H  0.69558434  0.67669939  0.84012843     0.14900
H1122       H  0.63486708  0.67984012  0.78732650     0.13600
H1123       H  0.55031488  0.61105608  0.92893080     0.11300
H1124       H  0.60804555  0.56005420  0.93662237     0.13300
C1125       C  0.60187772  0.62694546  0.60807414     0.19400
C1126       C  0.58754371  0.64475930  0.63642587    -0.18700
C1127       C  0.60891744  0.66106682  0.66091701    -0.11000
C1128       C  0.64506425  0.66001936  0.65714996     0.21700
C1129       C  0.65929025  0.64321683  0.62803515    -0.20300
C1130       C  0.63797098  0.62672984  0.60375007    -0.11100
C1131       C  0.66876467  0.67784035  0.68149943    -0.15300
C1132       C  0.66148164  0.68476383  0.71590598    -0.29200
C1133       C  0.57849525  0.60818702  0.58418376    -0.03400
C1134       C  0.58786757  0.57975799  0.56890538    -0.40000
H1135       H  0.55975140  0.64557508  0.63998560     0.12800
H1136       H  0.59707146  0.67483852  0.68229257     0.12400
H1137       H  0.68706567  0.64270208  0.62417997     0.11900
H1138       H  0.64980763  0.61410205  0.58153684     0.12100
H1139       H  0.69372116  0.68438258  0.67040089     0.14900
H1140       H  0.63757554  0.67562259  0.72748790     0.13600
H1141       H  0.55163550  0.61588212  0.58263224     0.11300
H1142       H  0.61383163  0.57027079  0.57266655     0.13300
C1143       C  0.63745049  0.35914868  0.82537999     0.19400
C1144       C  0.61776910  0.34960375  0.85530289    -0.18700
C1145       C  0.59617687  0.37198125  0.87212499    -0.11000
C1146       C  0.59414492  0.40468093  0.85961171     0.21700
C1147       C  0.61310148  0.41415977  0.82919500    -0.20300
C1148       C  0.63488956  0.39176704  0.81237768    -0.11100
C1149       C  0.57249937  0.42929091  0.87785389    -0.15300
C1150       C  0.56653341  0.42778427  0.91331845    -0.29200
C1151       C  0.66013486  0.33413132  0.80904027    -0.03400
C1152       C  0.67506037  0.33745616  0.77673715    -0.40000
H1153       H  0.61896621  0.32461154  0.86567679     0.12800
H1154       H  0.58090729  0.36345771  0.89470665     0.12400
H1155       H  0.61170573  0.43918369  0.81897307     0.11900
H1156       H  0.64989201  0.40049024  0.78977156     0.12100
H1157       H  0.56223014  0.44962604  0.86201496     0.14900
H1158       H  0.57796793  0.40841804  0.92964786     0.13600
H1159       H  0.66299205  0.31098677  0.82355847     0.11300
H1160       H  0.67095875  0.35933697  0.76054010     0.13300
C1161       C  0.66105347  0.34256312  0.63684457     0.19400
C1162       C  0.67771079  0.35909088  0.60847125    -0.18700
C1163       C  0.65895632  0.37947938  0.58515229    -0.11000
C1164       C  0.62307789  0.38284324  0.58911218     0.21700
C1165       C  0.60617245  0.36527225  0.61675337    -0.20300
C1166       C  0.62502178  0.34539577  0.64047271    -0.11100
C1167       C  0.60449883  0.40741909  0.56674550    -0.15300
C1168       C  0.57094105  0.40422154  0.55779912    -0.29200
C1169       C  0.68187158  0.32278398  0.66245416    -0.03400
C1170       C  0.67536035  0.32245912  0.69792221    -0.40000
H1171       H  0.70545818  0.35710947  0.60512862     0.12800
H1172       H  0.67253623  0.39299794  0.56425129     0.12400
H1173       H  0.57864596  0.36788156  0.62102653     0.11900
H1174       H  0.61143440  0.33240325  0.66173443     0.12100
H1175       H  0.61866473  0.42941915  0.55848413     0.14900
H1176       H  0.55708701  0.38149940  0.56390064     0.13600
H1177       H  0.70425589  0.31039121  0.65183732     0.11300
H1178       H  0.65380810  0.33680092  0.70761620     0.13300
C1179       C  0.39560624  0.37961812  0.91012387     0.19400
C1180       C  0.40054262  0.34801102  0.89630909    -0.18700
C1181       C  0.37701674  0.33492009  0.87170827    -0.11000
C1182       C  0.34773456  0.35296128  0.86135435     0.21700
C1183       C  0.34169820  0.38375792  0.87663441    -0.20300
C1184       C  0.36571057  0.39724654  0.90057217    -0.11100
C1185       C  0.32358467  0.33996052  0.83427814    -0.15300
C1186       C  0.33522825  0.32840779  0.80303709    -0.29200
C1187       C  0.42222999  0.39357551  0.93419833    -0.03400
C1188       C  0.43125093  0.42558634  0.93318947    -0.40000
H1189       H  0.42317614  0.33387386  0.90374223     0.12800
H1190       H  0.38166214  0.31075478  0.86068835     0.12400
H1191       H  0.31896157  0.39774114  0.86920380     0.11900
H1192       H  0.36086687  0.42133104  0.91163727     0.12100
H1193       H  0.29592952  0.34155280  0.83914312     0.14900
H1194       H  0.36272430  0.32936964  0.79713613     0.13600
H1195       H  0.43678499  0.37654930  0.95101707     0.11300
H1196       H  0.41854784  0.44238878  0.91459271     0.13300
C1197       C  0.36314850  0.37795286  0.67485435     0.19400
C1198       C  0.35274480  0.39984469  0.64764127    -0.18700
C1199       C  0.37666597  0.42111073  0.63133620    -0.11000
C1200       C  0.41182235  0.42031498  0.64135513     0.21700
C1201       C  0.42197713  0.39938058  0.66958674    -0.20300
C1202       C  0.39800171  0.37820636  0.68602986    -0.11100
C1203       C  0.43888385  0.43910762  0.62144758    -0.15300
C1204       C  0.43533693  0.44721638  0.58655663    -0.29200
C1205       C  0.33728719  0.35447501  0.69001734    -0.03400
C1206       C  0.33933438  0.34266384  0.72375455    -0.40000
H1207       H  0.32600032  0.40038194  0.63884741     0.12800
H1208       H  0.36751035  0.43780223  0.61065741     0.12400
H1209       H  0.44884585  0.39835862  0.67789220     0.11900
H1210       H  0.40718480  0.36125812  0.70645971     0.12100
H1211       H  0.46368543  0.44313350  0.63460050     0.14900
H1212       H  0.41137069  0.44183302  0.57249090     0.13600
H1213       H  0.31518873  0.34834052  0.67335076     0.11300
H1214       H  0.36017075  0.35141663  0.74075229     0.13300
loop_ 
_geom_bond_atom_site_label_1 
_geom_bond_atom_site_label_2 
_geom_bond_distance 
_geom_bond_site_symmetry_2 
_ccdc_geom_bond_type 
O1            C9   1.259       .  A
O1          Co21   1.979       .  S
O2           C10   1.268       .  A
O2          Co22   1.971       .  S
O3           C11   1.293       .  A
O3          Co23   2.091       .  S
O4           C12   1.274       .  A
O4          Co24   2.018       .  S
O5           C11   1.269       .  A
O5          Co22   1.891       .  S
O6           C12   1.262       .  A
O6          Co21   1.964       .  S
O7           C10   1.280       .  A
O7         Co631   2.035       .  S
O8            C9   1.261       .  A
O8         Co630   2.002   1_554  S
C9          C561   1.473       .  S
C10         C509   1.482       .  S
C11         C543   1.463       .  S
C12         C527   1.470       .  S
O13          C26   1.271       .  A
O13         Co21   2.021       .  S
O14          C27   1.293       .  A
O14         Co22   2.108       .  S
O15          C28   1.266       .  A
O15        Co630   1.961   1_554  S
O16          C29   1.255       .  A
O16        Co631   1.970       .  S
O17          C29   1.265       .  A
O17         Co22   2.013       .  S
O18          C28   1.280       .  A
O18         Co21   2.035       .  S
O19          C26   1.260       .  A
O19         Co24   1.952       .  S
O20          C27   1.264       .  A
O20         Co23   1.889       .  S
Co21         O25   2.029       .  S
Co22        O632   1.999       .  S
Co23        O615   2.002       .  S
Co23        O622   1.958       .  S
Co23        O632   1.986       .  S
Co24        O614   2.034   1_554  S
Co24        O623   1.965   1_554  S
Co24         O25   2.014       .  S
O25        Co629   1.999   1_554  S
O25        Co630   1.986   1_554  S
C26         C491   1.471       .  S
C27         C581   1.469       .  S
C28         C597   1.473       .  S
C29         C473   1.470       .  S
C30         C399   1.477       .  S
C30          N48   1.355       .  A
C30          C67   1.452       .  S
N31          N48   1.330       .  A
N31          N53   1.322       .  A
N31         Co68   2.106   1_565  S
C32          N57   1.345       .  A
C32          C70   1.464       .  S
C32          H77   1.081       .  S
H33          C74   1.081       .  S
C34          N58   1.340       .  A
C34          C38   1.459       .  S
C34          H63   1.081       .  S
Co35         N53   2.081   1_545  S
Co35         N43   2.098   1_545  S
Co35         N75   2.101       .  S
Co35         N51   2.087       .  S
Co35        Cl79   2.447       .  S
N36          C74   1.339       .  A
N36          N43   1.321       .  A
N36         Co37   2.080   1_565  S
Co37         N57   2.093       .  S
Co37        N647   2.098   1_544  S
Co37        N651   2.079   1_554  S
Co37        Cl79   2.459       .  S
C38         C437   1.480       .  S
C38          N76   1.352       .  A
N39          N46   1.321       .  A
N39          N69   1.323       .  A
N39         Co72   2.079   1_565  S
N40          N58   1.319       .  A
N40          N76   1.328       .  A
N40        Co644   2.099   1_565  S
N41          C70   1.349       .  A
N41          N51   1.324       .  A
H42          C67   1.081       .  S
N43          N64   1.328       .  A
N44          N62   1.320       .  A
N44          N49   1.323       .  A
N44        Co644   2.076       .  S
C45         C383   1.470       .  S
C45          N49   1.347       .  A
C45          C73   1.461       .  S
N46          C61   1.341       .  A
N46        Co675   2.086   1_565  S
C47          N75   1.346       .  A
C47          C50   1.466       .  S
C47          H81   1.081       .  S
C50         C347   1.477       .  S
C50          N71   1.347       .  A
N51          N57   1.320       .  A
N52          C78   1.345       .  A
N52          N54   1.321       .  A
N52        Co675   2.099       .  S
N53          C67   1.339       .  A
N54          N82   1.324       .  A
N54         Co72   2.080       .  S
H55          C78   1.081       .  S
H56          C73   1.081       .  S
N58         Co72   2.078   1_565  S
N59          N71   1.323       .  A
N59          N75   1.321       .  A
N59         Co68   2.081       .  S
C60         C455   1.475       .  S
C60          N64   1.352       .  A
C60          C74   1.454       .  S
C61          C80   1.463       .  S
C61          H65   1.081       .  S
N62          C73   1.341       .  A
N62         Co72   2.087       .  S
C66         C327   1.475       .  S
C66          N82   1.347       .  A
C66          C78   1.465       .  S
Co68        N653   2.087   1_544  S
Co68        N659   2.101   1_554  S
Co68        Cl79   2.464       .  S
N69          C80   1.346       .  A
C70         C363   1.478       .  S
Co72       Cl686   2.448       .  S
Cl79       Co679   2.444   1_554  S
C80         C419   1.471       .  S
C83         C255   1.469       .  S
C83         N101   1.352       .  A
C83         C120   1.451       .  S
N84         N101   1.327       .  A
N84         N106   1.322       .  A
N84        Co121   2.096       .  S
C85         N110   1.345       .  A
C85         C123   1.463       .  S
C85         H130   1.081       .  S
H86         C127   1.081       .  S
C87         N111   1.334       .  A
C87          C91   1.448       .  S
C87         H116   1.081       .  S
Co88        N106   2.077       .  S
Co88         N96   2.089       .  S
Co88        N128   2.078   1_655  S
Co88        N104   2.083   1_655  S
Co88       Cl132   2.429       .  S
N89         C127   1.345       .  A
N89          N96   1.321       .  A
N89         Co90   2.095       .  S
Co90        N110   2.089   1_655  S
Co90        N700   2.100   1_554  S
Co90        N704   2.086   1_654  S
Co90       Cl132   2.476       .  S
C91         C293   1.467       .  S
C91         N129   1.353       .  A
N92          N99   1.321       .  A
N92         N122   1.325       .  A
N92        Co125   2.096       .  S
N93         N111   1.320       .  A
N93         N129   1.329       .  A
N93        Co697   2.095       .  S
N94         C123   1.347       .  A
N94         N104   1.323       .  A
H95         C120   1.081       .  S
N96         N117   1.325       .  A
N97         N115   1.321       .  A
N97         N102   1.326       .  A
N97        Co697   2.090   1_455  S
C98         C203   1.479       .  S
C98         N102   1.351       .  A
C98         C126   1.462       .  S
N99         C114   1.346       .  A
N99        Co728   2.093       .  S
C100        N128   1.336       .  A
C100        C103   1.448       .  S
C100        H134   1.081       .  S
C103        C237   1.465       .  S
C103        N124   1.352       .  A
N104        N110   1.319       .  A
N105        C131   1.349       .  A
N105        N107   1.320       .  A
N105       Co728   2.104   1_455  S
N106        C120   1.337       .  A
N107        N135   1.322       .  A
N107       Co125   2.079   1_455  S
H108        C131   1.082       .  S
H109        C126   1.081       .  S
N111       Co125   2.068       .  S
N112        N124   1.327       .  A
N112        N128   1.322       .  A
N112       Co121   2.089   1_455  S
C113        C309   1.480       .  S
C113        N117   1.349       .  A
C113        C127   1.465       .  S
C114        C133   1.465       .  S
C114        H118   1.081       .  S
N115        C126   1.341       .  A
N115       Co125   2.091   1_455  S
C119        C219   1.480       .  S
C119        N135   1.345       .  A
C119        C131   1.470       .  S
Co121       N706   2.092   1_554  S
Co121       N712   2.104   1_654  S
Co121      Cl132   2.482       .  S
N122        C133   1.349       .  A
C123        C185   1.474       .  S
Co125      Cl739   2.426       .  S
Cl132      Co732   2.428   1_554  S
C133        C275   1.481       .  S
C136        H137   1.109       .  S
C136        C142   1.536       .  S
C136        C141   1.542       .  S
C136        C140   1.545       .  S
C138        H139   1.110       .  S
C138        C144   1.531       .  S
C138        C143   1.530       .  S
C138        C145   1.541       .  S
C140        C143   1.372       .  D
C140        C599   1.490       .  S
C141        C144   1.373       .  D
C141        C239   1.478       .  S
C142        C145   1.375       .  D
C142        C365   1.490       .  S
C143        C579   1.473       .  S
C144        C221   1.492       .  S
C145        C381   1.485       .  S
C146        H147   1.106       .  S
C146        C152   1.546       .  S
C146        C151   1.545       .  S
C146        C150   1.540       .  S
C148        H149   1.108       .  S
C148        C154   1.531       .  S
C148        C153   1.543       .  S
C148        C155   1.533       .  S
C150        C153   1.375       .  D
C150        C563   1.494       .  S
C151        C154   1.378       .  D
C151        C345   1.492       .  S
C152        C155   1.371       .  D
C152        C257   1.483       .  S
C153        C545   1.481       .  S
C154        C329   1.490       .  S
C155        C273   1.496       .  S
C156        H157   1.110       .  S
C156        C162   1.532       .  S
C156        C161   1.539       .  S
C156        C160   1.530       .  S
C158        H159   1.107       .  S
C158        C164   1.540       .  S
C158        C163   1.539       .  S
C158        C165   1.548       .  S
C160        C163   1.373       .  D
C160        C489   1.479       .  S
C161        C164   1.377       .  D
C161        C453   1.493       .  S
C162        C165   1.377       .  D
C162        C183   1.487       .  S
C163        C471   1.484       .  S
C164        C435   1.488       .  S
C165        C201   1.495       .  S
C166        H167   1.106       .  S
C166        C172   1.544       .  S
C166        C171   1.544       .  S
C166        C170   1.545       .  S
C168        H169   1.111       .  S
C168        C174   1.526       .  S
C168        C173   1.544       .  S
C168        C175   1.527       .  S
C170        C173   1.380       .  D
C170        C525   1.492       .  S
C171        C174   1.373       .  D
C171        C311   1.491       .  S
C172        C175   1.371       .  D
C172        C401   1.493       .  S
C173        C507   1.493       .  S
C174        C291   1.477       .  S
C175        C417   1.476       .  S
C176        C184   1.488       .  S
C176        C177   1.404       .  A
C176        C181   1.406       .  A
C177        H186   1.083       .  S
C177        C178   1.404       .  A
C178        H187   1.081       .  S
C178        C179   1.409       .  A
C179        C182   1.489       .  S
C179        C180   1.403       .  A
C180        H188   1.084       .  S
C180        C181   1.396       .  A
C181        H189   1.082       .  S
C182        C183   1.346       .  D
C182        H190   1.088       .  S
C183        H191   1.084       .  S
C184        C185   1.346       .  D
C184        H192   1.086       .  S
C185        H193   1.085       .  S
C194        C202   1.489       .  S
C194        C195   1.404       .  A
C194        C199   1.409       .  A
C195        H204   1.084       .  S
C195        C196   1.399       .  A
C196        H205   1.083       .  S
C196        C197   1.406       .  A
C197        C200   1.488       .  S
C197        C198   1.404       .  A
C198        H206   1.083       .  S
C198        C199   1.402       .  A
C199        H207   1.081       .  S
C200        C201   1.348       .  D
C200        H208   1.083       .  S
C201        H209   1.085       .  S
C202        C203   1.346       .  D
C202        H210   1.086       .  S
C203        H211   1.085       .  S
C212        C220   1.497       .  S
C212        C213   1.404       .  A
C212        C217   1.410       .  A
C213        H222   1.083       .  S
C213        C214   1.401       .  A
C214        H223   1.081       .  S
C214        C215   1.410       .  A
C215        C218   1.498       .  S
C215        C216   1.404       .  A
C216        H224   1.083       .  S
C216        C217   1.404       .  A
C217        H225   1.080       .  S
C218        C219   1.346       .  D
C218        H226   1.086       .  S
C219        H227   1.085       .  S
C220        C221   1.349       .  D
C220        H228   1.086       .  S
C221        H229   1.083       .  S
C230        C238   1.475       .  S
C230        C231   1.400       .  A
C230        C235   1.406       .  A
C231        H240   1.084       .  S
C231        C232   1.394       .  A
C232        H241   1.083       .  S
C232        C233   1.406       .  A
C233        C236   1.479       .  S
C233        C234   1.402       .  A
C234        H242   1.083       .  S
C234        C235   1.399       .  A
C235        H243   1.083       .  S
C236        C237   1.340       .  D
C236        H244   1.087       .  S
C237        H245   1.086       .  S
C238        C239   1.341       .  D
C238        H246   1.085       .  S
C239        H247   1.086       .  S
C248        C256   1.482       .  S
C248        C249   1.404       .  A
C248        C253   1.407       .  A
C249        H258   1.084       .  S
C249        C250   1.394       .  A
C250        H259   1.083       .  S
C250        C251   1.404       .  A
C251        C254   1.481       .  S
C251        C252   1.403       .  A
C252        H260   1.083       .  S
C252        C253   1.401       .  A
C253        H261   1.081       .  S
C254        C255   1.342       .  D
C254        H262   1.087       .  S
C255        H263   1.086       .  S
C256        C257   1.344       .  D
C256        H264   1.082       .  S
C257        H265   1.084       .  S
C266        C274   1.494       .  S
C266        C267   1.406       .  A
C266        C271   1.407       .  A
C267        H276   1.083       .  S
C267        C268   1.405       .  A
C268        H277   1.082       .  S
C268        C269   1.407       .  A
C269        C272   1.492       .  S
C269        C270   1.405       .  A
C270        H278   1.083       .  S
C270        C271   1.401       .  A
C271        H279   1.082       .  S
C272        C273   1.350       .  D
C272        H280   1.087       .  S
C273        H281   1.085       .  S
C274        C275   1.347       .  D
C274        H282   1.087       .  S
C275        H283   1.085       .  S
C284        C292   1.484       .  S
C284        C285   1.401       .  A
C284        C289   1.408       .  A
C285        H294   1.084       .  S
C285        C286   1.400       .  A
C286        H295   1.081       .  S
C286        C287   1.411       .  A
C287        C290   1.482       .  S
C287        C288   1.399       .  A
C288        H296   1.084       .  S
C288        C289   1.393       .  A
C289        H297   1.082       .  S
C290        C291   1.340       .  D
C290        H298   1.086       .  S
C291        H299   1.084       .  S
C292        C293   1.341       .  D
C292        H300   1.087       .  S
C293        H301   1.086       .  S
C302        C310   1.490       .  S
C302        C303   1.404       .  A
C302        C307   1.407       .  A
C303        H312   1.083       .  S
C303        C304   1.399       .  A
C304        H313   1.082       .  S
C304        C305   1.407       .  A
C305        C308   1.493       .  S
C305        C306   1.407       .  A
C306        H314   1.083       .  S
C306        C307   1.405       .  A
C307        H315   1.082       .  S
C308        C309   1.348       .  D
C308        H316   1.087       .  S
C309        H317   1.085       .  S
C310        C311   1.347       .  D
C310        H318   1.084       .  S
C311        H319   1.086       .  S
C320        C328   1.485       .  S
C320        C321   1.403       .  A
C320        C325   1.408       .  A
C321        H330   1.083       .  S
C321        C322   1.398       .  A
C322        H331   1.083       .  S
C322        C323   1.406       .  A
C323        C326   1.486       .  S
C323        C324   1.403       .  A
C324        H332   1.083       .  S
C324        C325   1.401       .  A
C325        H333   1.082       .  S
C326        C327   1.343       .  D
C326        H334   1.087       .  S
C327        H335   1.086       .  S
C328        C329   1.345       .  D
C328        H336   1.086       .  S
C329        H337   1.085       .  S
C338        C346   1.492       .  S
C338        C339   1.404       .  A
C338        C343   1.409       .  A
C339        H348   1.084       .  S
C339        C340   1.400       .  A
C340        H349   1.081       .  S
C340        C341   1.410       .  A
C341        C344   1.492       .  S
C341        C342   1.403       .  A
C342        H350   1.083       .  S
C342        C343   1.400       .  A
C343        H351   1.081       .  S
C344        C345   1.345       .  D
C344        H352   1.085       .  S
C345        H353   1.083       .  S
C346        C347   1.345       .  D
C346        H354   1.086       .  S
C347        H355   1.084       .  S
C356        C364   1.491       .  S
C356        C357   1.403       .  A
C356        C361   1.409       .  A
C357        H366   1.084       .  S
C357        C358   1.397       .  A
C358        H367   1.080       .  S
C358        C359   1.409       .  A
C359        C362   1.496       .  S
C359        C360   1.406       .  A
C360        H368   1.083       .  S
C360        C361   1.404       .  A
C361        H369   1.081       .  S
C362        C363   1.348       .  D
C362        H370   1.086       .  S
C363        H371   1.083       .  S
C364        C365   1.347       .  D
C364        H372   1.087       .  S
C365        H373   1.084       .  S
C374        C382   1.483       .  S
C374        C375   1.404       .  A
C374        C379   1.406       .  A
C375        H384   1.083       .  S
C375        C376   1.400       .  A
C376        H385   1.082       .  S
C376        C377   1.407       .  A
C377        C380   1.479       .  S
C377        C378   1.401       .  A
C378        H386   1.083       .  S
C378        C379   1.394       .  A
C379        H387   1.082       .  S
C380        C381   1.345       .  D
C380        H388   1.085       .  S
C381        H389   1.085       .  S
C382        C383   1.344       .  D
C382        H390   1.086       .  S
C383        H391   1.085       .  S
C392        C400   1.491       .  S
C392        C393   1.405       .  A
C392        C397   1.408       .  A
C393        H402   1.083       .  S
C393        C394   1.400       .  A
C394        H403   1.083       .  S
C394        C395   1.406       .  A
C395        C398   1.491       .  S
C395        C396   1.405       .  A
C396        H404   1.083       .  S
C396        C397   1.404       .  A
C397        H405   1.082       .  S
C398        C399   1.345       .  D
C398        H406   1.087       .  S
C399        H407   1.086       .  S
C400        C401   1.348       .  D
C400        H408   1.086       .  S
C401        H409   1.085       .  S
C410        C418   1.483       .  S
C410        C411   1.402       .  A
C410        C415   1.407       .  A
C411        H420   1.084       .  S
C411        C412   1.398       .  A
C412        H421   1.082       .  S
C412        C413   1.407       .  A
C413        C416   1.484       .  S
C413        C414   1.403       .  A
C414        H422   1.084       .  S
C414        C415   1.397       .  A
C415        H423   1.082       .  S
C416        C417   1.342       .  D
C416        H424   1.088       .  S
C417        H425   1.084       .  S
C418        C419   1.343       .  D
C418        H426   1.086       .  S
C419        H427   1.085       .  S
C428        C436   1.489       .  S
C428        C429   1.404       .  A
C428        C433   1.407       .  A
C429        H438   1.084       .  S
C429        C430   1.401       .  A
C430        H439   1.082       .  S
C430        C431   1.408       .  A
C431        C434   1.489       .  S
C431        C432   1.404       .  A
C432        H440   1.083       .  S
C432        C433   1.402       .  A
C433        H441   1.082       .  S
C434        C435   1.345       .  D
C434        H442   1.087       .  S
C435        H443   1.085       .  S
C436        C437   1.347       .  D
C436        H444   1.086       .  S
C437        H445   1.085       .  S
C446        C454   1.488       .  S
C446        C447   1.403       .  A
C446        C451   1.408       .  A
C447        H456   1.083       .  S
C447        C448   1.400       .  A
C448        H457   1.082       .  S
C448        C449   1.408       .  A
C449        C452   1.486       .  S
C449        C450   1.402       .  A
C450        H458   1.083       .  S
C450        C451   1.399       .  A
C451        H459   1.082       .  S
C452        C453   1.347       .  D
C452        H460   1.085       .  S
C453        H461   1.082       .  S
C454        C455   1.345       .  D
C454        H462   1.087       .  S
C455        H463   1.085       .  S
C464        C472   1.486       .  S
C464        C465   1.402       .  A
C464        C469   1.408       .  A
C465        H474   1.083       .  S
C465        C466   1.399       .  A
C466        H475   1.081       .  S
C466        C467   1.409       .  A
C467        C470   1.485       .  S
C467        C468   1.401       .  A
C468        H476   1.084       .  S
C468        C469   1.396       .  A
C469        H477   1.082       .  S
C470        C471   1.341       .  D
C470        H478   1.086       .  S
C471        H479   1.084       .  S
C472        C473   1.342       .  D
C472        H480   1.087       .  S
C473        H481   1.085       .  S
C482        C490   1.473       .  S
C482        C483   1.402       .  A
C482        C487   1.404       .  A
C483        H492   1.084       .  S
C483        C484   1.393       .  A
C484        H493   1.082       .  S
C484        C485   1.405       .  A
C485        C488   1.476       .  S
C485        C486   1.403       .  A
C486        H494   1.084       .  S
C486        C487   1.396       .  A
C487        H495   1.083       .  S
C488        C489   1.345       .  D
C488        H496   1.086       .  S
C489        H497   1.084       .  S
C490        C491   1.345       .  D
C490        H498   1.087       .  S
C491        H499   1.086       .  S
C500        C508   1.491       .  S
C500        C501   1.404       .  A
C500        C505   1.408       .  A
C501        H510   1.083       .  S
C501        C502   1.399       .  A
C502        H511   1.082       .  S
C502        C503   1.407       .  A
C503        C506   1.491       .  S
C503        C504   1.406       .  A
C504        H512   1.083       .  S
C504        C505   1.403       .  A
C505        H513   1.082       .  S
C506        C507   1.350       .  D
C506        H514   1.086       .  S
C507        H515   1.083       .  S
C508        C509   1.348       .  D
C508        H516   1.087       .  S
C509        H517   1.085       .  S
C518        C526   1.480       .  S
C518        C519   1.403       .  A
C518        C523   1.405       .  A
C519        H528   1.083       .  S
C519        C520   1.398       .  A
C520        H529   1.082       .  S
C520        C521   1.406       .  A
C521        C524   1.480       .  S
C521        C522   1.403       .  A
C522        H530   1.084       .  S
C522        C523   1.395       .  A
C523        H531   1.082       .  S
C524        C525   1.346       .  D
C524        H532   1.080       .  S
C525        H533   1.082       .  S
C526        C527   1.344       .  D
C526        H534   1.087       .  S
C527        H535   1.086       .  S
C536        C544   1.473       .  S
C536        C537   1.399       .  A
C536        C541   1.406       .  A
C537        H546   1.084       .  S
C537        C538   1.392       .  A
C538        H547   1.082       .  S
C538        C539   1.407       .  A
C539        C542   1.478       .  S
C539        C540   1.402       .  A
C540        H548   1.083       .  S
C540        C541   1.397       .  A
C541        H549   1.082       .  S
C542        C543   1.342       .  D
C542        H550   1.087       .  S
C543        H551   1.085       .  S
C544        C545   1.340       .  D
C544        H552   1.085       .  S
C545        H553   1.085       .  S
C554        C562   1.480       .  S
C554        C555   1.403       .  A
C554        C559   1.404       .  A
C555        H564   1.084       .  S
C555        C556   1.399       .  A
C556        H565   1.083       .  S
C556        C557   1.403       .  A
C557        C560   1.482       .  S
C557        C558   1.407       .  A
C558        H566   1.082       .  S
C558        C559   1.398       .  A
C559        H567   1.083       .  S
C560        C561   1.344       .  D
C560        H568   1.087       .  S
C561        H569   1.086       .  S
C562        C563   1.346       .  D
C562        H570   1.082       .  S
C563        H571   1.085       .  S
C572        C580   1.476       .  S
C572        C573   1.401       .  A
C572        C577   1.407       .  A
C573        H582   1.083       .  S
C573        C574   1.393       .  A
C574        H583   1.083       .  S
C574        C575   1.404       .  A
C575        C578   1.473       .  S
C575        C576   1.401       .  A
C576        H584   1.083       .  S
C576        C577   1.398       .  A
C577        H585   1.083       .  S
C578        C579   1.339       .  D
C578        H586   1.087       .  S
C579        H587   1.086       .  S
C580        C581   1.342       .  D
C580        H588   1.087       .  S
C581        H589   1.086       .  S
C590        C598   1.485       .  S
C590        C591   1.401       .  A
C590        C595   1.408       .  A
C591        H600   1.083       .  S
C591        C592   1.398       .  A
C592        H601   1.081       .  S
C592        C593   1.409       .  A
C593        C596   1.487       .  S
C593        C594   1.403       .  A
C594        H602   1.083       .  S
C594        C595   1.398       .  A
C595        H603   1.082       .  S
C596        C597   1.345       .  D
C596        H604   1.087       .  S
C597        H605   1.084       .  S
C598        C599   1.342       .  D
C598        H606   1.083       .  S
C599        H607   1.083       .  S
O608        C616   1.259       .  A
O608       Co628   1.981       .  S
O609        C617   1.268       .  A
O609       Co629   1.972       .  S
O610        C618   1.294       .  A
O610       Co630   2.098       .  S
O611        C619   1.274       .  A
O611       Co631   2.014       .  S
O612        C618   1.268       .  A
O612       Co629   1.891       .  S
O613        C619   1.263       .  A
O613       Co628   1.964       .  S
O614        C617   1.280       .  A
O615        C616   1.260       .  A
C616       C1168   1.474       .  S
C617       C1116   1.481       .  S
C618       C1150   1.466       .  S
C619       C1134   1.469       .  S
O620        C633   1.270       .  A
O620       Co628   2.017       .  S
O621        C634   1.294       .  A
O621       Co629   2.113       .  S
O622        C635   1.266       .  A
O623        C636   1.254       .  A
O624        C636   1.264       .  A
O624       Co629   2.009       .  S
O625        C635   1.281       .  A
O625       Co628   2.035       .  S
O626        C633   1.261       .  A
O626       Co631   1.956       .  S
O627        C634   1.264       .  A
O627       Co630   1.887       .  S
Co628       O632   2.029       .  S
Co631       O632   2.011       .  S
C633       C1098   1.471       .  S
C634       C1188   1.471       .  S
C635       C1204   1.472       .  S
C636       C1080   1.465       .  S
C637       C1006   1.477       .  S
C637        N655   1.354       .  A
C637        C674   1.453       .  S
N638        N655   1.330       .  A
N638        N660   1.322       .  A
N638       Co675   2.104   1_565  S
C639        N664   1.345       .  A
C639        C677   1.465       .  S
C639        H684   1.081       .  S
H640        C681   1.081       .  S
C641        N665   1.340       .  A
C641        C645   1.457       .  S
C641        H670   1.081       .  S
Co642       N660   2.082   1_545  S
Co642       N650   2.098   1_545  S
Co642       N682   2.095       .  S
Co642       N658   2.084       .  S
Co642      Cl686   2.449       .  S
N643        C681   1.336       .  A
N643        N650   1.321       .  A
N643       Co644   2.071   1_565  S
Co644       N664   2.095       .  S
Co644      Cl686   2.456       .  S
C645       C1044   1.476       .  S
C645        N683   1.352       .  A
N646        N653   1.321       .  A
N646        N676   1.322       .  A
N646       Co679   2.078   1_565  S
N647        N665   1.319       .  A
N647        N683   1.327       .  A
N648        C677   1.348       .  A
N648        N658   1.323       .  A
H649        C674   1.081       .  S
N650        N671   1.328       .  A
N651        N669   1.320       .  A
N651        N656   1.323       .  A
C652        C990   1.471       .  S
C652        N656   1.347       .  A
C652        C680   1.462       .  S
N653        C668   1.343       .  A
C654        N682   1.343       .  A
C654        C657   1.463       .  S
C654        H688   1.081       .  S
C657        C954   1.473       .  S
C657        N678   1.347       .  A
N658        N664   1.320       .  A
N659        C685   1.346       .  A
N659        N661   1.321       .  A
N660        C674   1.338       .  A
N661        N689   1.322       .  A
N661       Co679   2.073       .  S
H662        C685   1.081       .  S
H663        C680   1.081       .  S
N665       Co679   2.073   1_565  S
N666        N678   1.323       .  A
N666        N682   1.321       .  A
N666       Co675   2.078       .  S
C667       C1062   1.470       .  S
C667        N671   1.353       .  A
C667        C681   1.449       .  S
C668        C687   1.464       .  S
C668        H672   1.081       .  S
N669        C680   1.342       .  A
N669       Co679   2.087       .  S
C673        C934   1.473       .  S
C673        N689   1.345       .  A
C673        C685   1.466       .  S
Co675      Cl686   2.461       .  S
N676        C687   1.345       .  A
C677        C970   1.476       .  S
C687       C1026   1.470       .  S
C690        C862   1.467       .  S
C690        N708   1.352       .  A
C690        C727   1.449       .  S
N691        N708   1.327       .  A
N691        N713   1.321       .  A
N691       Co728   2.097       .  S
C692        N717   1.347       .  A
C692        C730   1.466       .  S
C692        H737   1.081       .  S
H693        C734   1.081       .  S
C694        N718   1.333       .  A
C694        C698   1.447       .  S
C694        H723   1.081       .  S
Co695       N713   2.072       .  S
Co695       N703   2.085       .  S
Co695       N735   2.085   1_655  S
Co695       N711   2.079   1_655  S
Co695      Cl739   2.429       .  S
N696        C734   1.344       .  A
N696        N703   1.320       .  A
N696       Co697   2.091       .  S
Co697       N717   2.096   1_655  S
Co697      Cl739   2.479       .  S
C698        C900   1.470       .  S
C698        N736   1.355       .  A
N699        N706   1.321       .  A
N699        N729   1.325       .  A
N699       Co732   2.095       .  S
N700        N718   1.321       .  A
N700        N736   1.330       .  A
N701        C730   1.346       .  A
N701        N711   1.322       .  A
H702        C727   1.081       .  S
N703        N724   1.324       .  A
N704        N722   1.320       .  A
N704        N709   1.325       .  A
C705        C810   1.477       .  S
C705        N709   1.349       .  A
C705        C733   1.462       .  S
N706        C721   1.344       .  A
C707        N735   1.339       .  A
C707        C710   1.452       .  S
C707        H741   1.081       .  S
C710        C844   1.470       .  S
C710        N731   1.351       .  A
N711        N717   1.320       .  A
N712        C738   1.350       .  A
N712        N714   1.320       .  A
N713        C727   1.337       .  A
N714        N742   1.321       .  A
N714       Co732   2.075   1_455  S
H715        C738   1.082       .  S
H716        C733   1.081       .  S
N718       Co732   2.067       .  S
N719        N731   1.327       .  A
N719        N735   1.322       .  A
N719       Co728   2.091   1_455  S
C720        C916   1.475       .  S
C720        N724   1.347       .  A
C720        C734   1.464       .  S
C721        C740   1.464       .  S
C721        H725   1.081       .  S
N722        C733   1.342       .  A
N722       Co732   2.090   1_455  S
C726        C826   1.477       .  S
C726        N742   1.344       .  A
C726        C738   1.470       .  S
Co728      Cl739   2.481       .  S
N729        C740   1.349       .  A
C730        C792   1.475       .  S
C740        C882   1.479       .  S
C743        H744   1.108       .  S
C743        C749   1.538       .  S
C743        C748   1.543       .  S
C743        C747   1.547       .  S
C745        H746   1.110       .  S
C745        C751   1.528       .  S
C745        C750   1.530       .  S
C745        C752   1.537       .  S
C747        C750   1.373       .  D
C747       C1206   1.491       .  S
C748        C751   1.373       .  D
C748        C846   1.483       .  S
C749        C752   1.377       .  D
C749        C972   1.488       .  S
C750       C1186   1.475       .  S
C751        C828   1.487       .  S
C752        C988   1.488       .  S
C753        H754   1.105       .  S
C753        C759   1.545       .  S
C753        C758   1.543       .  S
C753        C757   1.539       .  S
C755        H756   1.110       .  S
C755        C761   1.532       .  S
C755        C760   1.542       .  S
C755        C762   1.534       .  S
C757        C760   1.374       .  D
C757       C1170   1.493       .  S
C758        C761   1.378       .  D
C758        C952   1.489       .  S
C759        C762   1.370       .  D
C759        C864   1.483       .  S
C760       C1152   1.481       .  S
C761        C936   1.490       .  S
C762        C880   1.493       .  S
C763        H764   1.110       .  S
C763        C769   1.528       .  S
C763        C768   1.539       .  S
C763        C767   1.532       .  S
C765        H766   1.108       .  S
C765        C771   1.537       .  S
C765        C770   1.538       .  S
C765        C772   1.549       .  S
C767        C770   1.373       .  D
C767       C1096   1.480       .  S
C768        C771   1.376       .  D
C768       C1060   1.489       .  S
C769        C772   1.376       .  D
C769        C790   1.487       .  S
C770       C1078   1.482       .  S
C771       C1042   1.487       .  S
C772        C808   1.492       .  S
C773        H774   1.106       .  S
C773        C779   1.540       .  S
C773        C778   1.540       .  S
C773        C777   1.541       .  S
C775        H776   1.111       .  S
C775        C781   1.531       .  S
C775        C780   1.546       .  S
C775        C782   1.532       .  S
C777        C780   1.379       .  D
C777       C1132   1.490       .  S
C778        C781   1.373       .  D
C778        C918   1.483       .  S
C779        C782   1.372       .  D
C779       C1008   1.494       .  S
C780       C1114   1.492       .  S
C781        C898   1.485       .  S
C782       C1024   1.479       .  S
C783        C791   1.491       .  S
C783        C784   1.405       .  A
C783        C788   1.408       .  A
C784        H793   1.083       .  S
C784        C785   1.404       .  A
C785        H794   1.082       .  S
C785        C786   1.408       .  A
C786        C789   1.487       .  S
C786        C787   1.402       .  A
C787        H795   1.084       .  S
C787        C788   1.396       .  A
C788        H796   1.082       .  S
C789        C790   1.345       .  D
C789        H797   1.088       .  S
C790        H798   1.085       .  S
C791        C792   1.345       .  D
C791        H799   1.086       .  S
C792        H800   1.085       .  S
C801        C809   1.488       .  S
C801        C802   1.403       .  A
C801        C806   1.408       .  A
C802        H811   1.084       .  S
C802        C803   1.399       .  A
C803        H812   1.082       .  S
C803        C804   1.408       .  A
C804        C807   1.487       .  S
C804        C805   1.403       .  A
C805        H813   1.083       .  S
C805        C806   1.400       .  A
C806        H814   1.081       .  S
C807        C808   1.345       .  D
C807        H815   1.083       .  S
C808        H816   1.085       .  S
C809        C810   1.345       .  D
C809        H817   1.087       .  S
C810        H818   1.085       .  S
C819        C827   1.491       .  S
C819        C820   1.402       .  A
C819        C824   1.410       .  A
C820        H829   1.083       .  S
C820        C821   1.399       .  A
C821        H830   1.081       .  S
C821        C822   1.410       .  A
C822        C825   1.496       .  S
C822        C823   1.404       .  A
C823        H831   1.083       .  S
C823        C824   1.403       .  A
C824        H832   1.081       .  S
C825        C826   1.345       .  D
C825        H833   1.086       .  S
C826        H834   1.085       .  S
C827        C828   1.346       .  D
C827        H835   1.086       .  S
C828        H836   1.084       .  S
C837        C845   1.480       .  S
C837        C838   1.402       .  A
C837        C842   1.406       .  A
C838        H847   1.084       .  S
C838        C839   1.397       .  A
C839        H848   1.083       .  S
C839        C840   1.405       .  A
C840        C843   1.481       .  S
C840        C841   1.403       .  A
C841        H849   1.083       .  S
C841        C842   1.400       .  A
C842        H850   1.083       .  S
C843        C844   1.342       .  D
C843        H851   1.087       .  S
C844        H852   1.086       .  S
C845        C846   1.343       .  D
C845        H853   1.085       .  S
C846        H854   1.086       .  S
C855        C863   1.481       .  S
C855        C856   1.404       .  A
C855        C860   1.407       .  A
C856        H865   1.084       .  S
C856        C857   1.393       .  A
C857        H866   1.083       .  S
C857        C858   1.403       .  A
C858        C861   1.481       .  S
C858        C859   1.404       .  A
C859        H867   1.083       .  S
C859        C860   1.401       .  A
C860        H868   1.081       .  S
C861        C862   1.342       .  D
C861        H869   1.087       .  S
C862        H870   1.086       .  S
C863        C864   1.343       .  D
C863        H871   1.082       .  S
C864        H872   1.084       .  S
C873        C881   1.490       .  S
C873        C874   1.405       .  A
C873        C878   1.406       .  A
C874        H883   1.083       .  S
C874        C875   1.403       .  A
C875        H884   1.082       .  S
C875        C876   1.407       .  A
C876        C879   1.489       .  S
C876        C877   1.405       .  A
C877        H885   1.083       .  S
C877        C878   1.400       .  A
C878        H886   1.082       .  S
C879        C880   1.348       .  D
C879        H887   1.087       .  S
C880        H888   1.085       .  S
C881        C882   1.346       .  D
C881        H889   1.087       .  S
C882        H890   1.086       .  S
C891        C899   1.486       .  S
C891        C892   1.401       .  A
C891        C896   1.408       .  A
C892        H901   1.084       .  S
C892        C893   1.400       .  A
C893        H902   1.081       .  S
C893        C894   1.411       .  A
C894        C897   1.487       .  S
C894        C895   1.402       .  A
C895        H903   1.084       .  S
C895        C896   1.397       .  A
C896        H904   1.083       .  S
C897        C898   1.345       .  D
C897        H905   1.085       .  S
C898        H906   1.084       .  S
C899        C900   1.341       .  D
C899        H907   1.087       .  S
C900        H908   1.086       .  S
C909        C917   1.485       .  S
C909        C910   1.404       .  A
C909        C914   1.406       .  A
C910        H919   1.084       .  S
C910        C911   1.398       .  A
C911        H920   1.082       .  S
C911        C912   1.406       .  A
C912        C915   1.486       .  S
C912        C913   1.404       .  A
C913        H921   1.083       .  S
C913        C914   1.401       .  A
C914        H922   1.082       .  S
C915        C916   1.344       .  D
C915        H923   1.087       .  S
C916        H924   1.086       .  S
C917        C918   1.345       .  D
C917        H925   1.085       .  S
C918        H926   1.085       .  S
C927        C935   1.483       .  S
C927        C928   1.403       .  A
C927        C932   1.407       .  A
C928        H937   1.083       .  S
C928        C929   1.398       .  A
C929        H938   1.083       .  S
C929        C930   1.407       .  A
C930        C933   1.485       .  S
C930        C931   1.402       .  A
C931        H939   1.083       .  S
C931        C932   1.400       .  A
C932        H940   1.082       .  S
C933        C934   1.342       .  D
C933        H941   1.087       .  S
C934        H942   1.086       .  S
C935        C936   1.346       .  D
C935        H943   1.086       .  S
C936        H944   1.085       .  S
C945        C953   1.486       .  S
C945        C946   1.402       .  A
C945        C950   1.408       .  A
C946        H955   1.084       .  S
C946        C947   1.397       .  A
C947        H956   1.081       .  S
C947        C948   1.409       .  A
C948        C951   1.488       .  S
C948        C949   1.403       .  A
C949        H957   1.083       .  S
C949        C950   1.399       .  A
C950        H958   1.081       .  S
C951        C952   1.344       .  D
C951        H959   1.085       .  S
C952        H960   1.084       .  S
C953        C954   1.343       .  D
C953        H961   1.086       .  S
C954        H962   1.085       .  S
C963        C971   1.486       .  S
C963        C964   1.402       .  A
C963        C968   1.408       .  A
C964        H973   1.083       .  S
C964        C965   1.396       .  A
C965        H974   1.081       .  S
C965        C966   1.408       .  A
C966        C969   1.491       .  S
C966        C967   1.405       .  A
C967        H975   1.083       .  S
C967        C968   1.403       .  A
C968        H976   1.082       .  S
C969        C970   1.346       .  D
C969        H977   1.086       .  S
C970        H978   1.085       .  S
C971        C972   1.346       .  D
C971        H979   1.086       .  S
C972        H980   1.084       .  S
C981        C989   1.483       .  S
C981        C982   1.404       .  A
C981        C986   1.406       .  A
C982        H991   1.083       .  S
C982        C983   1.399       .  A
C983        H992   1.081       .  S
C983        C984   1.406       .  A
C984        C987   1.482       .  S
C984        C985   1.404       .  A
C985        H993   1.083       .  S
C985        C986   1.396       .  A
C986        H994   1.082       .  S
C987        C988   1.347       .  D
C987        H995   1.085       .  S
C988        H996   1.084       .  S
C989        C990   1.343       .  D
C989        H997   1.087       .  S
C990        H998   1.085       .  S
C999       C1007   1.490       .  S
C999       C1000   1.404       .  A
C999       C1004   1.408       .  A
C1000      H1009   1.083       .  S
C1000      C1001   1.398       .  A
C1001      H1010   1.083       .  S
C1001      C1002   1.406       .  A
C1002      C1005   1.491       .  S
C1002      C1003   1.406       .  A
C1003      H1011   1.083       .  S
C1003      C1004   1.405       .  A
C1004      H1012   1.082       .  S
C1005      C1006   1.346       .  D
C1005      H1013   1.087       .  S
C1006      H1014   1.086       .  S
C1007      C1008   1.349       .  D
C1007      H1015   1.086       .  S
C1008      H1016   1.085       .  S
C1017      C1025   1.488       .  S
C1017      C1018   1.403       .  A
C1017      C1022   1.409       .  A
C1018      H1027   1.084       .  S
C1018      C1019   1.398       .  A
C1019      H1028   1.082       .  S
C1019      C1020   1.407       .  A
C1020      C1023   1.484       .  S
C1020      C1021   1.402       .  A
C1021      H1029   1.084       .  S
C1021      C1022   1.397       .  A
C1022      H1030   1.081       .  S
C1023      C1024   1.343       .  D
C1023      H1031   1.087       .  S
C1024      H1032   1.084       .  S
C1025      C1026   1.343       .  D
C1025      H1033   1.087       .  S
C1026      H1034   1.084       .  S
C1035      C1043   1.485       .  S
C1035      C1036   1.404       .  A
C1035      C1040   1.405       .  A
C1036      H1045   1.084       .  S
C1036      C1037   1.401       .  A
C1037      H1046   1.082       .  S
C1037      C1038   1.410       .  A
C1038      C1041   1.488       .  S
C1038      C1039   1.403       .  A
C1039      H1047   1.083       .  S
C1039      C1040   1.398       .  A
C1040      H1048   1.082       .  S
C1041      C1042   1.343       .  D
C1041      H1049   1.087       .  S
C1042      H1050   1.085       .  S
C1043      C1044   1.347       .  D
C1043      H1051   1.086       .  S
C1044      H1052   1.085       .  S
C1053      C1061   1.485       .  S
C1053      C1054   1.402       .  A
C1053      C1058   1.407       .  A
C1054      H1063   1.083       .  S
C1054      C1055   1.399       .  A
C1055      H1064   1.081       .  S
C1055      C1056   1.409       .  A
C1056      C1059   1.485       .  S
C1056      C1057   1.402       .  A
C1057      H1065   1.083       .  S
C1057      C1058   1.397       .  A
C1058      H1066   1.082       .  S
C1059      C1060   1.344       .  D
C1059      H1067   1.085       .  S
C1060      H1068   1.080       .  S
C1061      C1062   1.341       .  D
C1061      H1069   1.087       .  S
C1062      H1070   1.086       .  S
C1071      C1079   1.481       .  S
C1071      C1072   1.400       .  A
C1071      C1076   1.407       .  A
C1072      H1081   1.083       .  S
C1072      C1073   1.397       .  A
C1073      H1082   1.081       .  S
C1073      C1074   1.410       .  A
C1074      C1077   1.484       .  S
C1074      C1075   1.401       .  A
C1075      H1083   1.084       .  S
C1075      C1076   1.395       .  A
C1076      H1084   1.083       .  S
C1077      C1078   1.340       .  D
C1077      H1085   1.086       .  S
C1078      H1086   1.084       .  S
C1079      C1080   1.340       .  D
C1079      H1087   1.087       .  S
C1080      H1088   1.086       .  S
C1089      C1097   1.475       .  S
C1089      C1090   1.402       .  A
C1089      C1094   1.405       .  A
C1090      H1099   1.084       .  S
C1090      C1091   1.393       .  A
C1091      H1100   1.083       .  S
C1091      C1092   1.403       .  A
C1092      C1095   1.475       .  S
C1092      C1093   1.403       .  A
C1093      H1101   1.084       .  S
C1093      C1094   1.397       .  A
C1094      H1102   1.083       .  S
C1095      C1096   1.346       .  D
C1095      H1103   1.086       .  S
C1096      H1104   1.085       .  S
C1097      C1098   1.345       .  D
C1097      H1105   1.087       .  S
C1098      H1106   1.085       .  S
C1107      C1115   1.492       .  S
C1107      C1108   1.405       .  A
C1107      C1112   1.408       .  A
C1108      H1117   1.083       .  S
C1108      C1109   1.401       .  A
C1109      H1118   1.082       .  S
C1109      C1110   1.407       .  A
C1110      C1113   1.491       .  S
C1110      C1111   1.405       .  A
C1111      H1119   1.083       .  S
C1111      C1112   1.402       .  A
C1112      H1120   1.081       .  S
C1113      C1114   1.348       .  D
C1113      H1121   1.087       .  S
C1114      H1122   1.083       .  S
C1115      C1116   1.349       .  D
C1115      H1123   1.087       .  S
C1116      H1124   1.085       .  S
C1125      C1133   1.479       .  S
C1125      C1126   1.403       .  A
C1125      C1130   1.405       .  A
C1126      H1135   1.083       .  S
C1126      C1127   1.397       .  A
C1127      H1136   1.082       .  S
C1127      C1128   1.405       .  A
C1128      C1131   1.477       .  S
C1128      C1129   1.403       .  A
C1129      H1137   1.084       .  S
C1129      C1130   1.394       .  A
C1130      H1138   1.082       .  S
C1131      C1132   1.346       .  D
C1131      H1139   1.081       .  S
C1132      H1140   1.083       .  S
C1133      C1134   1.344       .  D
C1133      H1141   1.087       .  S
C1134      H1142   1.085       .  S
C1143      C1151   1.483       .  S
C1143      C1144   1.402       .  A
C1143      C1148   1.410       .  A
C1144      H1153   1.084       .  S
C1144      C1145   1.393       .  A
C1145      H1154   1.082       .  S
C1145      C1146   1.406       .  A
C1146      C1149   1.479       .  S
C1146      C1147   1.401       .  A
C1147      H1155   1.083       .  S
C1147      C1148   1.398       .  A
C1148      H1156   1.080       .  S
C1149      C1150   1.343       .  D
C1149      H1157   1.087       .  S
C1150      H1158   1.085       .  S
C1151      C1152   1.341       .  D
C1151      H1159   1.086       .  S
C1152      H1160   1.082       .  S
C1161      C1169   1.480       .  S
C1161      C1162   1.403       .  A
C1161      C1166   1.405       .  A
C1162      H1171   1.084       .  S
C1162      C1163   1.398       .  A
C1163      H1172   1.083       .  S
C1163      C1164   1.403       .  A
C1164      C1167   1.482       .  S
C1164      C1165   1.407       .  A
C1165      H1173   1.082       .  S
C1165      C1166   1.398       .  A
C1166      H1174   1.083       .  S
C1167      C1168   1.344       .  D
C1167      H1175   1.087       .  S
C1168      H1176   1.086       .  S
C1169      C1170   1.346       .  D
C1169      H1177   1.082       .  S
C1170      H1178   1.084       .  S
C1179      C1187   1.476       .  S
C1179      C1180   1.402       .  A
C1179      C1184   1.406       .  A
C1180      H1189   1.083       .  S
C1180      C1181   1.395       .  A
C1181      H1190   1.084       .  S
C1181      C1182   1.403       .  A
C1182      C1185   1.471       .  S
C1182      C1183   1.400       .  A
C1183      H1191   1.083       .  S
C1183      C1184   1.397       .  A
C1184      H1192   1.083       .  S
C1185      C1186   1.339       .  D
C1185      H1193   1.087       .  S
C1186      H1194   1.086       .  S
C1187      C1188   1.344       .  D
C1187      H1195   1.087       .  S
C1188      H1196   1.086       .  S
C1197      C1205   1.486       .  S
C1197      C1198   1.402       .  A
C1197      C1202   1.408       .  A
C1198      H1207   1.083       .  S
C1198      C1199   1.397       .  A
C1199      H1208   1.081       .  S
C1199      C1200   1.408       .  A
C1200      C1203   1.486       .  S
C1200      C1201   1.403       .  A
C1201      H1209   1.083       .  S
C1201      C1202   1.398       .  A
C1202      H1210   1.082       .  S
C1203      C1204   1.345       .  D
C1203      H1211   1.087       .  S
C1204      H1212   1.085       .  S
C1205      C1206   1.343       .  D
C1205      H1213   1.083       .  S
C1206      H1214   1.083       .  S
