geometry optimzed in LAMMPS
_audit_creation_date              2020-11-30 
_audit_creation_method            'lammps2cif' 
_symmetry_space_group_name_H-M    'P1' 
_symmetry_Int_Tables_number       1 
_symmetry_cell_setting            triclinic 
loop_ 
_symmetry_equiv_pos_as_xyz 
  x,y,z 
_cell_length_a                    45.41951415 
_cell_length_b                    30.26819526139033 
_cell_length_c                    31.08442823384349 
_cell_angle_alpha                 90.45050785381821 
_cell_angle_beta                  90.22743990290421 
_cell_angle_gamma                 90.96899118919063 
loop_ 
_atom_site_label 
_atom_site_type_symbol 
_atom_site_fract_x 
_atom_site_fract_y 
_atom_site_fract_z 
_atom_site_charge 
N1          N  0.55370767  0.05166338  0.24058095    -0.27300
N2          N  0.53702053  0.05351708  0.20581444    -0.35200
C3          C  0.55411334  0.05627779  0.17081609     0.01000
C4          C  0.58330751  0.05742690  0.18371699     0.07100
C5          C  0.58218801  0.05382526  0.22837408    -0.06000
H6          H  0.54575382  0.05554374  0.13822826     0.07700
H7          H  0.60070158  0.05172337  0.25021978     0.08900
Cu8        Cu  0.49207600  0.54088431  0.21442484     0.44200
Cu9        Cu  0.53526695  0.04203527  0.30157554     0.42000
Cu10       Cu  0.45269655  0.52091040  0.31191024     0.43900
N11         N  0.44723781  0.53017712  0.21562447    -0.34700
N12         N  0.43203505  0.52094273  0.25068602    -0.28900
C13         C  0.40418101  0.50977938  0.23856806    -0.05000
C14         C  0.40200686  0.51297754  0.19392998     0.07200
C15         C  0.42984818  0.52556371  0.18083400     0.01000
H16         H  0.38731908  0.49766995  0.26016721     0.08600
H17         H  0.43749013  0.52802688  0.14799952     0.07700
N18         N  0.48153531  0.02038161  0.35722431    -0.36100
N19         N  0.51026424  0.02915557  0.35683207    -0.28300
C20         C  0.52067594  0.02797548  0.39752375    -0.03600
C21         C  0.49769338  0.01745121  0.42491311     0.05100
C22         C  0.47319210  0.01333164  0.39828638     0.03200
H23         H  0.54342460  0.03406863  0.40653178     0.08300
H24         H  0.44956244  0.51589207  0.41893772     0.07100
N25         N  0.44211202  0.47999771  0.80563821    -0.27300
N26         N  0.45933366  0.46532236  0.83656202    -0.35200
C27         C  0.44317412  0.45669759  0.87165887     0.01000
C28         C  0.41424048  0.46716815  0.86315698     0.07100
C29         C  0.41422329  0.48110926  0.82058697    -0.06000
H30         H  0.45212512  0.44523288  0.90177022     0.07700
H31         H  0.39554227  0.49274289  0.80247361     0.08900
Cu32       Cu  0.50466958  0.46558336  0.83340469     0.44200
Cu33       Cu  0.45942725  0.49983619  0.74614127     0.42000
Cu34       Cu  0.54251720  0.00565320  0.73589942     0.43900
N35         N  0.54809546  0.98281717  0.82954104    -0.34700
N36         N  0.56142013  0.00335906  0.79753099    -0.28900
C37         C  0.58642050  0.02262974  0.81283131    -0.05000
C38         C  0.58841959  0.01445897  0.85674180     0.07200
C39         C  0.56398851  0.98830261  0.86574289     0.01000
H40         H  0.60158230  0.04216381  0.79375994     0.08600
H41         H  0.55771781  0.97513022  0.89668341     0.07700
N42         N  0.51658580  0.00369167  0.67979815    -0.36100
N43         N  0.48422514  0.51415543  0.69085834    -0.28300
C44         C  0.47390905  0.51607159  0.65015652    -0.03600
C45         C  0.50187643  0.00648546  0.61156674     0.05100
C46         C  0.52582855  0.01065053  0.63917614     0.03200
H47         H  0.45117289  0.50996963  0.64118080     0.08300
H48         H  0.54842105  0.01772946  0.63033663     0.07100
C49         C  0.21572148  0.13988035  0.02569203     0.86500
C50         C  0.20109944  0.14895790  0.06928124    -0.53800
C51         C  0.18423580  0.18577135  0.07073908     0.09400
C52         C  0.18497246  0.21242597  0.02851543     0.20400
C53         C  0.19125867  0.14188275  0.99179329    -0.54500
C54         C  0.17506694  0.17934742  0.99280869     0.09500
C55         C  0.23398506  0.18287433  0.01864685    -0.54000
C56         C  0.21818647  0.22133291  0.02041695     0.10100
H57         H  0.20351834  0.12790760  0.09699174     0.14600
H58         H  0.17145347  0.24214079  0.02980641     0.00300
H59         H  0.18741720  0.11578940  0.96811837     0.14900
H60         H  0.25774211  0.18332071  0.01521567     0.14700
C61         C  0.28500914  0.39221088  0.02801152     0.86500
C62         C  0.30689690  0.39605443  0.99054849    -0.53800
C63         C  0.32121611  0.43603896  0.98761162     0.09400
C64         C  0.31608109  0.96814795  0.01450261     0.20400
C65         C  0.30333197  0.40381926  0.06877618    -0.54500
C66         C  0.31907488  0.44267647  0.06644491     0.09500
C67         C  0.26518054  0.43324990  0.02353791    -0.54000
C68         C  0.28240151  0.97344149  0.01400981     0.10100
H69         H  0.31062193  0.36911556  0.96804449     0.14600
H70         H  0.32853195  0.99969738  0.01528450     0.00300
H71         H  0.30332082  0.38420762  0.09761059     0.14900
H72         H  0.24130848  0.43128086  0.02348235     0.14700
N73         N  0.06344883  0.22205804  0.25271305    -0.27300
N74         N  0.04820692  0.22269900  0.21647388    -0.35200
C75         C  0.06645987  0.21893887  0.18294610     0.01000
C76         C  0.09472721  0.21496023  0.19846772     0.07100
C77         C  0.09222003  0.21728054  0.24297389    -0.06000
H78         H  0.05948901  0.21742782  0.14962939     0.07700
H79         H  0.10976531  0.21437213  0.26636047     0.08900
Cu80       Cu  0.00313699  0.22526769  0.21351812     0.44200
Cu81       Cu  0.04204896  0.22723941  0.31205952     0.42000
Cu82       Cu  0.95996992  0.24390376  0.30686750     0.43900
N83         N  0.95829559  0.23180059  0.21089642    -0.34700
N84         N  0.94163719  0.24025376  0.24460747    -0.28900
C85         C  0.91384592  0.24680430  0.23051665    -0.05000
C86         C  0.91348850  0.24252470  0.18589046     0.07200
C87         C  0.94193939  0.23229043  0.17492080     0.01000
H88         H  0.89556647  0.25559194  0.25089164     0.08600
H89         H  0.95043425  0.22662160  0.14293958     0.07700
N90         N  0.98569392  0.24409840  0.36345078    -0.36100
N91         N  0.01448738  0.23736490  0.36506473    -0.28300
C92         C  0.02338662  0.23879511  0.40647256    -0.03600
C93         C  0.99936732  0.24738194  0.43219663     0.05100
C94         C  0.97581085  0.25022336  0.40394206     0.03200
H95         H  0.04579693  0.23395136  0.41712629     0.08300
H96         H  0.95305691  0.25573632  0.41227671     0.07100
N97         N  0.94236459  0.24377431  0.80393525    -0.27300
N98         N  0.95459545  0.21885732  0.83351249    -0.35200
C99         C  0.93853500  0.22041847  0.86967259     0.01000
C100        C  0.91534713  0.24885957  0.86343033     0.07100
C101        C  0.91818242  0.26231448  0.82088247    -0.06000
H102        H  0.94404599  0.20315629  0.89882700     0.07700
H103        H  0.90421874  0.28501776  0.80392345     0.08900
Cu104      Cu  0.99596983  0.19233000  0.82735486     0.44200
Cu105      Cu  0.96124579  0.25244954  0.74319343     0.42000
Cu106      Cu  0.04098169  0.23485926  0.74210527     0.43900
N107        N  0.04140781  0.19384617  0.82978909    -0.34700
N108        N  0.05826312  0.21316101  0.80075775    -0.28900
C109        C  0.08594970  0.21659945  0.81661307    -0.05000
C110        C  0.08662476  0.19784491  0.85753445     0.07200
C111        C  0.05776501  0.18381454  0.86422137     0.01000
H112        H  0.10356471  0.23363545  0.80020507     0.08600
H113        H  0.04880935  0.16918877  0.89309183     0.07700
N114        N  0.01562391  0.24647803  0.68691159    -0.36100
N115        N  0.98680898  0.25265732  0.68725082    -0.28300
C116        C  0.97714841  0.25602230  0.64632108    -0.03600
C117        C  0.00088885  0.25148144  0.61891225     0.05100
C118        C  0.02490834  0.24569488  0.64575950     0.03200
H119        H  0.95434712  0.25986691  0.63710610     0.08300
H120        H  0.04737619  0.24000386  0.63602254     0.07100
C121        C  0.78313027  0.31478405  0.02719227     0.86500
C122        C  0.80195225  0.30503678  0.06710004    -0.53800
C123        C  0.81883194  0.26837987  0.06346792     0.09400
C124        C  0.81428208  0.24286736  0.02065792     0.20400
C125        C  0.80449122  0.31451541  0.98906045    -0.54500
C126        C  0.82047035  0.27701020  0.98497789     0.09500
C127        C  0.76464923  0.27142308  0.02172781    -0.54000
C128        C  0.78079605  0.23390728  0.01791731     0.10100
H129        H  0.80297534  0.32646882  0.09524337     0.14600
H130        H  0.82794515  0.21290390  0.01846915     0.00300
H131        H  0.80721902  0.34237839  0.96751474     0.14900
H132        H  0.74093580  0.26879733  0.02424762     0.14700
C133        C  0.71586397  0.48215002  0.03384048     0.86500
C134        C  0.69456742  0.48812929  0.07147747    -0.53800
C135        C  0.67845863  0.02664429  0.06225032     0.09400
C136        C  0.68598209  0.05646119  0.02313027     0.20400
C137        C  0.69720963  0.48766887  0.99311021    -0.54500
C138        C  0.68115361  0.02712918  0.98246515     0.09500
C139        C  0.73536004  0.52479095  0.03421142    -0.54000
C140        C  0.71950062  0.06367176  0.02593132     0.10100
H141        H  0.69132877  0.46258469  0.09527570     0.14600
H142        H  0.67417628  0.08806981  0.02130262     0.00300
H143        H  0.69598111  0.46301659  0.96763657     0.14900
H144        H  0.75854702  0.02628826  0.02446792     0.14700
C145        C  0.74885890  0.17933375  0.05497238    -0.05800
C146        C  0.76631387  0.18922006  0.01905028     0.00100
C147        C  0.76767499  0.15808451  0.98482990    -0.08400
C148        C  0.75219005  0.11751180  0.98860380    -0.05800
C149        C  0.73468662  0.10778091  0.02454485     0.00100
C150        C  0.73315290  0.13909241  0.05856550    -0.08300
C151        C  0.71563074  0.13002216  0.09899320     0.62000
H152        H  0.74738374  0.20393681  0.08027916     0.12700
H153        H  0.75317122  0.09316049  0.96299404     0.12700
C154        C  0.78341924  0.16875321  0.94324738     0.62300
F155        F  0.72055717  0.16210502  0.13031600    -0.22900
F156        F  0.72364922  0.08997223  0.11593819    -0.20200
F157        F  0.68595102  0.12921118  0.08941711    -0.19900
F158        F  0.81306486  0.17613339  0.95078760    -0.20000
F159        F  0.77125037  0.20596286  0.92568033    -0.20300
F160        F  0.78063404  0.13483534  0.91329152    -0.22900
C161        C  0.76170594  0.43715912  0.04813165    -0.05800
C162        C  0.73186503  0.43757234  0.03563754     0.00100
C163        C  0.71836837  0.39618551  0.02411156    -0.08400
C164        C  0.73621186  0.35903997  0.01910290    -0.05800
C165        C  0.76635696  0.35875607  0.03016885     0.00100
C166        C  0.77961595  0.39992265  0.04354486    -0.08300
C167        C  0.81216595  0.40837091  0.05399210     0.62000
H168        H  0.77178527  0.46648652  0.06202083     0.12700
H169        H  0.72566529  0.32998543  0.00561369     0.12700
C170        C  0.68552780  0.38730322  0.01657424     0.62300
F171        F  0.82135946  0.44782320  0.03571160    -0.22900
F172        F  0.83084876  0.37661420  0.03874724    -0.20200
F173        F  0.81562437  0.41197158  0.09811359    -0.19900
F174        F  0.68060138  0.37946179  0.97322581    -0.20000
F175        F  0.66745093  0.42069320  0.03001200    -0.20300
F176        F  0.67696625  0.34994461  0.03905525    -0.22900
C177        C  0.86347544  0.26765495  0.87929658    -0.05800
C178        C  0.89208253  0.26116566  0.89495841     0.00100
C179        C  0.89709445  0.26441739  0.94006042    -0.08400
C180        C  0.87272112  0.26678178  0.96771074    -0.05800
C181        C  0.84397847  0.27193396  0.95212278     0.00100
C182        C  0.83936939  0.27432461  0.90681151    -0.08300
C183        C  0.81016592  0.28306546  0.88460643     0.62000
H184        H  0.85966622  0.26677398  0.84484915     0.12700
H185        H  0.87637526  0.26699651  0.00219797     0.12700
C186        C  0.92748352  0.26900907  0.96037677     0.62300
F187        F  0.80376963  0.24897342  0.85598387    -0.22900
F188        F  0.81270864  0.32201398  0.86181937    -0.20200
F189        F  0.78663319  0.28674447  0.91208360    -0.19900
F190        F  0.94821443  0.28482366  0.93163740    -0.20000
F191        F  0.93609900  0.22858140  0.97599040    -0.20300
F192        F  0.92685553  0.29891009  0.99432082    -0.22900
C193        C  0.86445563  0.22152825  0.15570075    -0.05800
C194        C  0.88896653  0.25039098  0.15538572     0.00100
C195        C  0.89014403  0.28521083  0.12510186    -0.08400
C196        C  0.86693442  0.28916700  0.09539121    -0.05800
C197        C  0.84277755  0.25974502  0.09494688     0.00100
C198        C  0.84121317  0.22560708  0.12576796    -0.08300
C199        C  0.81490044  0.19431750  0.12742179     0.62000
H200        H  0.86390414  0.19532624  0.17922820     0.12700
H201        H  0.86750130  0.31537877  0.07187990     0.12700
C202        C  0.91539838  0.31879414  0.12461061     0.62300
F203        F  0.81702380  0.16468492  0.16094381    -0.22900
F204        F  0.81290396  0.17043959  0.08943964    -0.20200
F205        F  0.78954775  0.21826019  0.13314415    -0.19900
F206        F  0.94072114  0.29910190  0.11001198    -0.20000
F207        F  0.92021161  0.33556687  0.16561083    -0.20300
F208        F  0.90952122  0.35393209  0.09783119    -0.22900
C209        C  0.99829409  0.28941247  0.54834908    -0.05800
C210        C  0.00025754  0.24968292  0.57110955     0.00100
C211        C  0.00147783  0.20916887  0.54807045    -0.08400
C212        C  0.00070636  0.20979551  0.50271248    -0.05800
C213        C  0.99892623  0.24948489  0.47995168     0.00100
C214        C  0.99801374  0.29004635  0.50291351    -0.08300
C215        C  0.99772063  0.33370608  0.47931246     0.62000
H216        H  0.99747669  0.32003973  0.56652443     0.12700
H217        H  0.00171390  0.17919657  0.48451689     0.12700
C218        C  0.00350203  0.16549273  0.57142002     0.62300
F219        F  0.99792393  0.36940937  0.50743567    -0.22900
F220        F  0.97272509  0.33589147  0.45395576    -0.20200
F221        F  0.02235970  0.33722176  0.45345952    -0.19900
F222        F  0.98023937  0.16097210  0.59971356    -0.20000
F223        F  0.02971090  0.16413196  0.59407964    -0.20300
F224        F  0.00254596  0.12986046  0.54322187    -0.22900
C225        C  0.25922442  0.26960211  0.04707752    -0.05800
C226        C  0.23344698  0.26611939  0.02219928     0.00100
C227        C  0.22525639  0.30341051  0.99764190    -0.08400
C228        C  0.24232048  0.34293989  0.00123069    -0.05800
C229        C  0.26802191  0.34686809  0.02706682     0.00100
C230        C  0.27795971  0.30712429  0.04666136    -0.08300
C231        C  0.30884977  0.30022586  0.06375347     0.62000
H232        H  0.26581637  0.24120896  0.06559812     0.12700
H233        H  0.23590482  0.37095403  0.98227776     0.12700
C234        C  0.19950588  0.30194008  0.96631968     0.62300
F235        F  0.30960412  0.30849839  0.10753042    -0.22900
F236        F  0.32917053  0.32630556  0.04252168    -0.20200
F237        F  0.31733761  0.25694218  0.05713882    -0.19900
F238        F  0.17332804  0.30528085  0.98842900    -0.20000
F239        F  0.19961302  0.26312118  0.94271636    -0.20300
F240        F  0.20094097  0.33647053  0.93740121    -0.22900
C241        C  0.24164740  0.01907965  0.04252569    -0.05800
C242        C  0.26657859  0.01693672  0.01604052     0.00100
C243        C  0.27355684  0.05443208  0.99031317    -0.08400
C244        C  0.25710435  0.09330880  0.99566135    -0.05800
C245        C  0.23236909  0.09568607  0.02282429     0.00100
C246        C  0.22274127  0.05544313  0.04271093    -0.08300
C247        C  0.19232457  0.04678204  0.06183238     0.62000
H248        H  0.23565035  0.99053319  0.06161922     0.12700
H249        H  0.26296093  0.12181724  0.97666068     0.12700
C250        C  0.29668959  0.05387825  0.95512309     0.62300
F251        F  0.18279027  0.00426388  0.05153777    -0.22900
F252        F  0.17122187  0.07462142  0.04598227    -0.20200
F253        F  0.19370593  0.05044375  0.10616497    -0.19900
F254        F  0.29542881  0.01428563  0.93289602    -0.20000
F255        F  0.32440573  0.06064640  0.97258420    -0.20300
F256        F  0.29214628  0.08691361  0.92536043    -0.22900
C257        C  0.10225994  0.19918475  0.93418864    -0.05800
C258        C  0.11077928  0.19669673  0.89066798     0.00100
C259        C  0.14091805  0.18904226  0.88124154    -0.08400
C260        C  0.16111415  0.18573185  0.91570178    -0.05800
C261        C  0.15230972  0.18766634  0.95899596     0.00100
C262        C  0.12211526  0.19274536  0.96836062    -0.08300
C263        C  0.11030323  0.18747080  0.01364037     0.62000
H264        H  0.07941599  0.20509941  0.94157241     0.12700
H265        H  0.18422222  0.18073415  0.90908165     0.13100
C266        C  0.15208979  0.18267596  0.83565426     0.62300
F267        F  0.07981790  0.18690709  0.01451061    -0.22900
F268        F  0.12010650  0.22197441  0.03947070    -0.20200
F269        F  0.11965064  0.14784617  0.03025116    -0.19900
F270        F  0.15341672  0.22292185  0.81507330    -0.20000
F271        F  0.13381419  0.15366143  0.81308547    -0.20300
F272        F  0.18009970  0.16529205  0.83516075    -0.22900
C273        C  0.14103695  0.23928158  0.16272158    -0.05800
C274        C  0.12072720  0.20518189  0.17178596     0.00100
C275        C  0.12363453  0.16355684  0.15148713    -0.08400
C276        C  0.14499798  0.15879612  0.11937457    -0.05800
C277        C  0.16390885  0.19385226  0.10754779     0.00100
C278        C  0.16325554  0.23391940  0.13148876    -0.08300
C279        C  0.18661655  0.26979777  0.12592394     0.62000
H280        H  0.13888588  0.27056627  0.17948121     0.12700
H281        H  0.14661475  0.12759801  0.10241573     0.12700
C282        C  0.10455544  0.12411540  0.16430044     0.62300
F283        F  0.18568246  0.30081134  0.15884366    -0.22900
F284        F  0.18248674  0.29150901  0.08758080    -0.20200
F285        F  0.21426117  0.25130367  0.12639935    -0.19900
F286        F  0.07542732  0.13134028  0.15399866    -0.20000
F287        F  0.10702962  0.11759602  0.20815727    -0.20300
F288        F  0.11299202  0.08571273  0.14360982    -0.22900
C289        C  0.64145933  0.02492946  0.87427057    -0.05800
C290        C  0.61207410  0.02836961  0.88752285     0.00100
C291        C  0.60711939  0.53986790  0.93861468    -0.08400
C292        C  0.63025465  0.54026003  0.96879420    -0.05800
C293        C  0.65891471  0.03508907  0.94801245     0.00100
C294        C  0.66508546  0.02995766  0.90348722    -0.08300
C295        C  0.69601884  0.02856189  0.88545009     0.62000
H296        H  0.64606779  0.01708709  0.84090728     0.12700
H297        H  0.62512449  0.54455167  0.00240381     0.12700
C298        C  0.57683466  0.55235963  0.95470431     0.62300
F299        F  0.69760180  0.05363639  0.84845524    -0.22900
F300        F  0.70294925  0.48067551  0.88488031    -0.20200
F301        F  0.71677907  0.04553330  0.91398738    -0.19900
F302        F  0.56379989  0.51646247  0.97475674    -0.20000
F303        F  0.55695612  0.06394595  0.91499755    -0.20300
F304        F  0.57937337  0.58672701  0.98421737    -0.22900
C305        C  0.36378539  0.93889424  0.86816846    -0.05800
C306        C  0.38922035  0.46480378  0.89389691     0.00100
C307        C  0.39163231  0.47992616  0.93712871    -0.08400
C308        C  0.36918726  0.46877671  0.96628092    -0.05800
C309        C  0.34305071  0.44705626  0.95319374     0.00100
C310        C  0.33972787  0.93544217  0.89644167    -0.08300
C311        C  0.31080493  0.91815514  0.87741165     0.62000
H312        H  0.36166627  0.92573733  0.83573280     0.12700
H313        H  0.37220504  0.47737351  0.99993890     0.12700
C314        C  0.41711069  0.50844482  0.95381339     0.62300
F315        F  0.30658822  0.93596034  0.83700425    -0.22900
F316        F  0.28671289  0.92949682  0.90189151    -0.20200
F317        F  0.31175734  0.87267771  0.87321080    -0.19900
F318        F  0.43076982  0.53189864  0.92128725    -0.20000
F319        F  0.43741900  0.48206893  0.97400812    -0.20300
F320        F  0.40701737  0.53913633  0.98330454    -0.22900
C321        C  0.63322786  0.02955815  0.16731957    -0.05800
C322        C  0.60959997  0.05596552  0.15514407     0.00100
C323        C  0.61104420  0.07781787  0.11500583    -0.08400
C324        C  0.63350141  0.06675075  0.08609989    -0.05800
C325        C  0.65665309  0.03850816  0.09705003     0.00100
C326        C  0.65767607  0.02278074  0.14037738    -0.08300
C327        C  0.68374860  0.99999106  0.16097067     0.62000
H328        H  0.63269990  0.01397776  0.19858163     0.12700
H329        H  0.63279452  0.08144746  0.05474063     0.12700
C330        C  0.58988672  0.11352524  0.10136331     0.62300
F331        F  0.68693326  0.01374079  0.20336597    -0.22900
F332        F  0.71007383  0.00986144  0.14093966    -0.20200
F333        F  0.68471255  0.46018244  0.17452388    -0.19900
F334        F  0.57692340  0.13395851  0.13624386    -0.20000
F335        F  0.56872950  0.59000534  0.08320670    -0.20300
F336        F  0.60338428  0.64329278  0.09156375    -0.22900
C337        C  0.38458830  0.45423380  0.14432841    -0.05800
C338        C  0.37887119  0.49455291  0.16462572     0.00100
C339        C  0.35305868  0.00985045  0.14789337    -0.08400
C340        C  0.33445413  0.99191874  0.11536730    -0.05800
C341        C  0.33983389  0.45903734  0.10096682     0.00100
C342        C  0.36594054  0.43638424  0.11213224    -0.08300
C343        C  0.37474092  0.39371243  0.09032947     0.62000
H344        H  0.40433024  0.43700958  0.15355992     0.12700
H345        H  0.31311270  0.00614428  0.10938069     0.12700
C346        C  0.34345427  0.04937912  0.17419125     0.62300
F347        F  0.40412048  0.38450369  0.09741999    -0.22900
F348        F  0.37057423  0.39609087  0.04633895    -0.20200
F349        F  0.35811567  0.35948602  0.10697844    -0.19900
F350        F  0.36316497  0.08415618  0.16848072    -0.20000
F351        F  0.34268025  0.03842562  0.21726811    -0.20300
F352        F  0.31572825  0.06326529  0.16224705    -0.22900
C353        C  0.50442024  0.05206147  0.49725205    -0.05800
C354        C  0.49897898  0.01363067  0.47266288     0.00100
C355        C  0.51456947  0.49370429  0.50640167    -0.08400
C356        C  0.51370897  0.49477383  0.55184200    -0.05800
C357        C  0.50151909  0.01016662  0.56385086     0.00100
C358        C  0.50547101  0.05112401  0.54267304    -0.08300
C359        C  0.50952275  0.09381032  0.56811979     0.62000
H360        H  0.50734225  0.08305526  0.48049747     0.12700
H361        H  0.52626002  0.47130678  0.57020978     0.12700
C362        C  0.53278670  0.45896907  0.48380530     0.62300
F363        F  0.51151211  0.13022922  0.54156820    -0.22900
F364        F  0.53503815  0.09240930  0.59239024    -0.20200
F365        F  0.48574895  0.09940756  0.59519442    -0.19900
F366        F  0.55650799  0.47893804  0.46366545    -0.20000
F367        F  0.51571748  0.43647502  0.45358920    -0.20300
F368        F  0.54363923  0.42829808  0.51235551    -0.22900
N369        N  0.55374459  0.54516610  0.24920901    -0.27300
N370        N  0.53735011  0.54476167  0.21406129    -0.35200
C371        C  0.55472642  0.54686956  0.17931919     0.01000
C372        C  0.58375465  0.55016830  0.19280623     0.07100
C373        C  0.58231501  0.54817571  0.23752523    -0.06000
H374        H  0.54669737  0.54556091  0.14654632     0.07700
H375        H  0.60065912  0.54875556  0.25983668     0.08900
Cu376      Cu  0.49182437  0.04818455  0.20645930     0.44200
Cu377      Cu  0.53461473  0.53972866  0.31020301     0.42000
Cu378      Cu  0.45393785  0.01825832  0.30229350     0.43900
N379        N  0.44762179  0.03236652  0.20694554    -0.34700
N380        N  0.43302133  0.01964487  0.24150639    -0.28900
C381        C  0.40580390  0.00571901  0.22896059    -0.05000
C382        C  0.40341214  0.01051552  0.18451996     0.07200
C383        C  0.43047731  0.02712202  0.17198103     0.01000
H384        H  0.38973295  0.99051356  0.25001282     0.08600
H385        H  0.43790645  0.03202171  0.13930516     0.07700
N386        N  0.48036152  0.52474691  0.36695449    -0.36100
N387        N  0.50929291  0.53151364  0.36593495    -0.28300
C388        C  0.51984829  0.53232537  0.40655043    -0.03600
C389        C  0.49676796  0.52522264  0.43481718     0.05100
C390        C  0.47203282  0.52118951  0.40850946     0.03200
H391        H  0.54266047  0.53879664  0.41480631     0.08300
H392        H  0.45081162  0.00616135  0.40812775     0.07100
N393        N  0.44438155  0.96473842  0.79323599    -0.27300
N394        N  0.46114805  0.95258109  0.82573377    -0.35200
C395        C  0.44450588  0.94684949  0.86084267     0.01000
C396        C  0.41578607  0.95697315  0.85067740     0.07100
C397        C  0.41633411  0.96729344  0.80717200    -0.06000
H398        H  0.45308798  0.93802362  0.89200950     0.07700
H399        H  0.39801137  0.97804373  0.78777068     0.08900
Cu400      Cu  0.50644550  0.95516071  0.82518660     0.44200
Cu401      Cu  0.46239362  0.98104367  0.73343155     0.42000
Cu402      Cu  0.54048571  0.51873319  0.74520356     0.43900
N403        N  0.54761120  0.48859946  0.83657282    -0.34700
N404        N  0.56088306  0.51059798  0.80542034    -0.28900
C405        C  0.58674036  0.52708750  0.82082157    -0.05000
C406        C  0.58936605  0.51544960  0.86391326     0.07200
C407        C  0.56440750  0.49019850  0.87217489     0.01000
H408        H  0.60189446  0.54754960  0.80265894     0.08600
H409        H  0.55818747  0.47556411  0.90248513     0.07700
N410        N  0.51319164  0.52036214  0.69036008    -0.36100
N411        N  0.48788998  0.99491759  0.67901080    -0.28300
C412        C  0.47831142  0.99601964  0.63791911    -0.03600
C413        C  0.49728275  0.52424684  0.62257355     0.05100
C414        C  0.52185091  0.52615167  0.64925946     0.03200
H415        H  0.45577775  0.98974329  0.62791103     0.08300
H416        H  0.54449080  0.53081534  0.63935341     0.07100
C417        C  0.21578357  0.64162340  0.02296300     0.86500
C418        C  0.20205044  0.65537516  0.06614288    -0.53800
C419        C  0.18664134  0.69374043  0.06511466     0.09400
C420        C  0.18801424  0.71680321  0.02102767     0.20400
C421        C  0.19095373  0.64312712  0.98956980    -0.54500
C422        C  0.17629915  0.68201139  0.98816028     0.09500
C423        C  0.23554826  0.68214635  0.01239005    -0.54000
C424        C  0.22135486  0.72193759  0.01174139     0.10100
H425        H  0.20376588  0.63621000  0.09524268     0.14600
H426        H  0.17594866  0.74790232  0.02000269     0.00300
H427        H  0.18581815  0.61568862  0.96791328     0.14900
H428        H  0.25913280  0.67983485  0.00785375     0.14700
C429        C  0.28760005  0.89222867  0.01590534     0.86500
C430        C  0.30797662  0.89800955  0.97728484    -0.53800
C431        C  0.32252356  0.93768955  0.97544835     0.09400
C432        C  0.31352935  0.46827172  0.02456189     0.20400
C433        C  0.30714664  0.90123973  0.05589868    -0.54500
C434        C  0.32263115  0.94032041  0.05470107     0.09500
C435        C  0.26767220  0.93337478  0.01488940    -0.54000
C436        C  0.27993912  0.47313095  0.02135708     0.10100
H437        H  0.31101017  0.87190732  0.95371522     0.14600
H438        H  0.32581951  0.50009804  0.02451846     0.00300
H439        H  0.30830434  0.87919362  0.08312771     0.14900
H440        H  0.24384275  0.93123765  0.01604406     0.14700
N441        N  0.06530185  0.74187130  0.24323510    -0.27300
N442        N  0.05015524  0.74636118  0.20721588    -0.35200
C443        C  0.06839172  0.74445204  0.17343084     0.01000
C444        C  0.09655875  0.73794610  0.18849215     0.07100
C445        C  0.09392612  0.73648848  0.23301417    -0.06000
H446        H  0.06133017  0.74457542  0.14014359     0.07700
H447        H  0.11117390  0.72944690  0.25592851     0.08900
Cu448      Cu  0.00496777  0.74766396  0.20452105     0.44200
Cu449      Cu  0.04406211  0.73979566  0.30313923     0.42000
Cu450      Cu  0.96142187  0.74241994  0.29969140     0.43900
N451        N  0.95973246  0.74604381  0.20302468    -0.34700
N452        N  0.94281964  0.74459047  0.23749259    -0.28900
C453        C  0.91439710  0.74636212  0.22443851    -0.05000
C454        C  0.91385021  0.74937627  0.17975069     0.07200
C455        C  0.94296421  0.74851604  0.16755592     0.01000
H456        H  0.89565192  0.74695219  0.24578253     0.08600
H457        H  0.95149349  0.75031476  0.13517601     0.07700
N458        N  0.98729401  0.74177945  0.35622977    -0.36100
N459        N  0.01648715  0.74052979  0.35734446    -0.28300
C460        C  0.02546322  0.74105664  0.39879768    -0.03600
C461        C  0.00099708  0.74329341  0.42513839     0.05100
C462        C  0.97720536  0.74328754  0.39701677     0.03200
H463        H  0.04824135  0.74063848  0.40907247     0.08300
H464        H  0.95416678  0.74426662  0.40558260     0.07100
N465        N  0.94375599  0.75041672  0.79756932    -0.27300
N466        N  0.95605514  0.72487609  0.82656053    -0.35200
C467        C  0.93944472  0.72390557  0.86213163     0.01000
C468        C  0.91567450  0.75131891  0.85653293     0.07100
C469        C  0.91885126  0.76692695  0.81460665    -0.06000
H470        H  0.94474696  0.70472869  0.89007999     0.07700
H471        H  0.90440634  0.78928959  0.79808164     0.08900
Cu472      Cu  0.99769212  0.69926310  0.82117427     0.44200
Cu473      Cu  0.96327158  0.75989826  0.73690669     0.42000
Cu474      Cu  0.04320904  0.73762144  0.73651329     0.43900
N475        N  0.04305008  0.69926836  0.82496586    -0.34700
N476        N  0.06035016  0.71682788  0.79548414    -0.28900
C477        C  0.08809808  0.71911329  0.81123074    -0.05000
C478        C  0.08828370  0.70144846  0.85260643     0.07200
C479        C  0.05911823  0.68936912  0.85974707     0.01000
H480        H  0.10613214  0.73471239  0.79444738     0.08600
H481        H  0.04987511  0.67611613  0.88905733     0.07700
N482        N  0.01776302  0.74738003  0.68108256    -0.36100
N483        N  0.98916909  0.75548604  0.68094446    -0.28300
C484        C  0.97975091  0.75697743  0.63971171    -0.03600
C485        C  0.00330305  0.74873700  0.61262320     0.05100
C486        C  0.02706626  0.74341876  0.64011132     0.03200
H487        H  0.95717215  0.76223993  0.63008969     0.08300
H488        H  0.04956480  0.73701583  0.63111506     0.07100
C489        C  0.78211707  0.81413515  0.01877040     0.86500
C490        C  0.80111481  0.80597998  0.05895381    -0.53800
C491        C  0.81820922  0.76932243  0.05684552     0.09400
C492        C  0.81364396  0.74239740  0.01480643     0.20400
C493        C  0.80323522  0.81245863  0.98042365    -0.54500
C494        C  0.81951737  0.77515837  0.97779096     0.09500
C495        C  0.76380597  0.77052574  0.01498291    -0.54000
C496        C  0.78013816  0.73296796  0.01269186     0.10100
H497        H  0.80187270  0.82834539  0.08640119     0.14600
H498        H  0.82766785  0.71293679  0.01312652     0.00300
H499        H  0.80561527  0.83932545  0.95764217     0.14900
H500        H  0.74009213  0.76800474  0.01767397     0.14700
C501        C  0.71517695  0.98255584  0.02385288     0.86500
C502        C  0.69331072  0.98764906  0.06106183    -0.53800
C503        C  0.67955143  0.52692049  0.07190395     0.09400
C504        C  0.68644727  0.55576871  0.03183596     0.20400
C505        C  0.69703848  0.98932301  0.98287191    -0.54500
C506        C  0.68132637  0.52541530  0.99194063     0.09500
C507        C  0.73474056  0.02521341  0.02583501    -0.54000
C508        C  0.72003091  0.56319267  0.03356864     0.10100
H509        H  0.68955902  0.96128410  0.08378926     0.14600
H510        H  0.67434505  0.58710453  0.02957438     0.00300
H511        H  0.69577316  0.96506530  0.95701673     0.14900
H512        H  0.75915513  0.52564248  0.03207149     0.14700
C513        C  0.74828744  0.68127798  0.05351016    -0.05800
C514        C  0.76591006  0.68835679  0.01709349     0.00100
C515        C  0.76802632  0.65423433  0.98579616    -0.08400
C516        C  0.75271741  0.61401391  0.99268111    -0.05800
C517        C  0.73510580  0.60708416  0.02912384     0.00100
C518        C  0.73331924  0.64096323  0.06063416    -0.08300
C519        C  0.71695657  0.63419275  0.10254808     0.62000
H520        H  0.74640418  0.70794731  0.07669375     0.12700
H521        H  0.75411985  0.58753328  0.96924763     0.12700
C522        C  0.78455158  0.66092724  0.94401951     0.62300
F523        F  0.72126188  0.66933007  0.13079701    -0.22900
F524        F  0.72696911  0.59664004  0.12239090    -0.20200
F525        F  0.68713333  0.62992995  0.09475097    -0.19900
F526        F  0.81413050  0.66835967  0.95199578    -0.20000
F527        F  0.77309293  0.69660798  0.92279424    -0.20300
F528        F  0.78197041  0.62450830  0.91694900    -0.22900
C529        C  0.76102265  0.93705566  0.03700587    -0.05800
C530        C  0.73109811  0.93769344  0.02492985     0.00100
C531        C  0.71746117  0.89620723  0.01370941    -0.08400
C532        C  0.73511185  0.85853986  0.00986044    -0.05800
C533        C  0.76534173  0.85827336  0.02048787     0.00100
C534        C  0.77880535  0.89969211  0.03251606    -0.08300
C535        C  0.81148735  0.90814526  0.04201997     0.62000
H536        H  0.77134570  0.96622672  0.05070981     0.12700
H537        H  0.72441275  0.82900550  0.99761505     0.12700
C538        C  0.68466041  0.88753625  0.00552025     0.62300
F539        F  0.82042623  0.94768855  0.02366446    -0.22900
F540        F  0.82991168  0.87648748  0.02594484    -0.20200
F541        F  0.81560812  0.91150873  0.08603279    -0.19900
F542        F  0.68039417  0.87714357  0.96250665    -0.20000
F543        F  0.66658081  0.92192708  0.01614907    -0.20300
F544        F  0.67544053  0.85177805  0.02981959    -0.22900
C545        C  0.86291771  0.76540591  0.87229303    -0.05800
C546        C  0.89167171  0.76053693  0.88811896     0.00100
C547        C  0.89639804  0.76343057  0.93339991    -0.08400
C548        C  0.87187063  0.76560737  0.96085295    -0.05800
C549        C  0.84309567  0.76937946  0.94506522     0.00100
C550        C  0.83852100  0.77056650  0.89970038    -0.08300
C551        C  0.80896367  0.77652595  0.87752545     0.62000
H552        H  0.85927194  0.76445589  0.83780580     0.12700
H553        H  0.87526871  0.76622945  0.99540454     0.12700
C554        C  0.92680914  0.76749637  0.95378637     0.62300
F555        F  0.80391510  0.74182594  0.84905552    -0.22900
F556        F  0.80983024  0.81551971  0.85462199    -0.20200
F557        F  0.78537174  0.77799844  0.90516524    -0.19900
F558        F  0.94617160  0.79002758  0.92723556    -0.20000
F559        F  0.93741232  0.72599111  0.96249735    -0.20300
F560        F  0.92574035  0.79095257  0.99218369    -0.22900
C561        C  0.86738770  0.72150434  0.14571534    -0.05800
C562        C  0.88837262  0.75575207  0.15049252     0.00100
C563        C  0.88564220  0.79447171  0.12558271    -0.08400
C564        C  0.86272271  0.79665384  0.09521868    -0.05800
C565        C  0.84211350  0.76202247  0.08924359     0.00100
C566        C  0.84409577  0.72392388  0.11551121    -0.08300
C567        C  0.82129013  0.68682900  0.11321603     0.62000
H568        H  0.86975121  0.69240957  0.16540735     0.12700
H569        H  0.86097596  0.82561270  0.07522861     0.12700
C570        C  0.90679567  0.83359806  0.13070803     0.62300
F571        F  0.82595954  0.65522893  0.14436894    -0.22900
F572        F  0.82224349  0.66594542  0.07363871    -0.20200
F573        F  0.79366410  0.70391451  0.11969484    -0.19900
F574        F  0.93316994  0.82423716  0.11091655    -0.20000
F575        F  0.91181980  0.84273243  0.17382540    -0.20300
F576        F  0.89567067  0.87133392  0.11222819    -0.22900
C577        C  0.99359957  0.78323536  0.54170296    -0.05800
C578        C  0.00286543  0.74611660  0.56460676     0.00100
C579        C  0.01070112  0.70744549  0.54140450    -0.08400
C580        C  0.00965718  0.70784183  0.49594967    -0.05800
C581        C  0.00068796  0.74514043  0.47311422     0.00100
C582        C  0.99266658  0.78361764  0.49626497    -0.08300
C583        C  0.98413580  0.82538988  0.47297140     0.62000
H584        H  0.98749412  0.81234683  0.55984232     0.12700
H585        H  0.01591000  0.67885395  0.47772806     0.12700
C586        C  0.01947380  0.66551922  0.56434323     0.62300
F587        F  0.97937067  0.86007100  0.50125492    -0.22900
F588        F  0.95852635  0.81789835  0.44971877    -0.20200
F589        F  0.00644706  0.83798828  0.44525012    -0.19900
F590        F  0.99903975  0.65506517  0.59570793    -0.20000
F591        F  0.04686756  0.67145689  0.58316125    -0.20300
F592        F  0.02093129  0.62988635  0.53627149    -0.22900
C593        C  0.26553813  0.76840230  0.03035548    -0.05800
C594        C  0.23796497  0.76548075  0.00975713     0.00100
C595        C  0.22804809  0.80333860  0.98755178    -0.08400
C596        C  0.24407204  0.84352621  0.99204315    -0.05800
C597        C  0.27138590  0.84678162  0.01392981     0.00100
C598        C  0.28375343  0.80630275  0.02815576    -0.08300
C599        C  0.31612134  0.79900947  0.03795921     0.62000
H600        H  0.27398875  0.73971327  0.04659774     0.12700
H601        H  0.23578590  0.87218059  0.97575279     0.12700
C602        C  0.20234715  0.80203798  0.95618935     0.62300
F603        F  0.32043954  0.79816399  0.08197456    -0.22900
F604        F  0.33436904  0.83039284  0.01977721    -0.20200
F605        F  0.32459836  0.75875775  0.02092201    -0.19900
F606        F  0.17663488  0.81259339  0.97721700    -0.20000
F607        F  0.19944234  0.76097546  0.93695888    -0.20300
F608        F  0.20672891  0.83220510  0.92345757    -0.22900
C609        C  0.24042007  0.52181747  0.04832432    -0.05800
C610        C  0.26421897  0.51651370  0.02019430     0.00100
C611        C  0.26999640  0.55040697  0.98972848    -0.08400
C612        C  0.25418992  0.59009582  0.99265319    -0.05800
C613        C  0.23118556  0.59635463  0.02233869     0.00100
C614        C  0.22196077  0.55868095  0.04667546    -0.08300
C615        C  0.19199335  0.55269727  0.06786304     0.62000
H616        H  0.23482791  0.49513680  0.07005246     0.12700
H617        H  0.25902862  0.61611477  0.97003994     0.12700
C618        C  0.29047165  0.54402416  0.95170559     0.62300
F619        F  0.18150126  0.51000549  0.06078100    -0.22900
F620        F  0.17102409  0.58032545  0.05124909    -0.20200
F621        F  0.19461586  0.55934607  0.11177915    -0.19900
F622        F  0.28332868  0.50485813  0.93097438    -0.20000
F623        F  0.31943773  0.54364040  0.96498584    -0.20300
F624        F  0.28793831  0.57748293  0.92184470    -0.22900
C625        C  0.10429745  0.70612143  0.92892766    -0.05800
C626        C  0.11241256  0.69977955  0.88563182     0.00100
C627        C  0.14193162  0.68798868  0.87647999    -0.08400
C628        C  0.16202581  0.68413286  0.91096245    -0.05800
C629        C  0.15367872  0.69014292  0.95410246     0.00100
C630        C  0.12401600  0.69999381  0.96334089    -0.08300
C631        C  0.11242355  0.70043048  0.00903053     0.62000
H632        H  0.08185208  0.71506637  0.93591987     0.12700
H633        H  0.18471177  0.67590082  0.90451936     0.13100
C634        C  0.15242810  0.67794076  0.83117710     0.62300
F635        F  0.08207714  0.70386317  0.01024602    -0.22900
F636        F  0.12432203  0.73585606  0.03165180    -0.20200
F637        F  0.11967941  0.66142115  0.02894534    -0.19900
F638        F  0.15513844  0.71672319  0.80833182    -0.20000
F639        F  0.13282601  0.64936656  0.81053232    -0.20300
F640        F  0.17967911  0.65808881  0.83126951    -0.22900
C641        C  0.14292354  0.75754252  0.15024319    -0.05800
C642        C  0.12189747  0.72519076  0.16156432     0.00100
C643        C  0.12391112  0.68205527  0.14417447    -0.08400
C644        C  0.14636811  0.67316302  0.11464544    -0.05800
C645        C  0.16628481  0.70606901  0.10079409     0.00100
C646        C  0.16541296  0.74865427  0.12022115    -0.08300
C647        C  0.18817449  0.78442680  0.11046931     0.62000
H648        H  0.14106068  0.79033115  0.16408931     0.12700
H649        H  0.14756102  0.64057073  0.10032431     0.12700
C650        C  0.10185340  0.64579265  0.15570758     0.62300
F651        F  0.18901959  0.81647530  0.14250082    -0.22900
F652        F  0.18135679  0.80477011  0.07220533    -0.20200
F653        F  0.21593886  0.76656674  0.10779092    -0.19900
F654        F  0.07432719  0.65610942  0.13998027    -0.20000
F655        F  0.10044604  0.64146882  0.19990173    -0.20300
F656        F  0.10951159  0.60529342  0.13844626    -0.22900
C657        C  0.64252543  0.52298986  0.88268509    -0.05800
C658        C  0.61309728  0.52762606  0.89530891     0.00100
C659        C  0.60631302  0.04044067  0.93092448    -0.08400
C660        C  0.62969204  0.04110117  0.96066035    -0.05800
C661        C  0.65948426  0.53317590  0.95680796     0.00100
C662        C  0.66596743  0.52719700  0.91240770    -0.08300
C663        C  0.69701073  0.52419437  0.89493172     0.62000
H664        H  0.64726715  0.51494538  0.84940189     0.12700
H665        H  0.62475573  0.04488605  0.99435624     0.12700
C666        C  0.57624114  0.05321915  0.94764535     0.62300
F667        F  0.69950404  0.54914348  0.85795927    -0.22900
F668        F  0.70286975  0.98541191  0.87524280    -0.20200
F669        F  0.71792817  0.54009123  0.92375181    -0.19900
F670        F  0.56439740  0.01884172  0.97136175    -0.20000
F671        F  0.55878675  0.56659837  0.92186679    -0.20300
F672        F  0.57912596  0.09007790  0.97409575    -0.22900
C673        C  0.36286075  0.44427016  0.88028064    -0.05800
C674        C  0.39054804  0.95876054  0.88085275     0.00100
C675        C  0.39287270  0.97806200  0.92254018    -0.08400
C676        C  0.36995968  0.97091629  0.95198991    -0.05800
C677        C  0.34376440  0.94869582  0.94029564     0.00100
C678        C  0.33912755  0.43675696  0.90859140    -0.08300
C679        C  0.31081626  0.41880263  0.88814650     0.62000
H680        H  0.36074370  0.43389881  0.84691802     0.12700
H681        H  0.37300142  0.98205736  0.98491566     0.12700
C682        C  0.41901950  0.00630509  0.93721197     0.62300
F683        F  0.30440910  0.44316978  0.85188474    -0.22900
F684        F  0.28658103  0.42097815  0.91460334    -0.20200
F685        F  0.31473850  0.37530352  0.87588526    -0.19900
F686        F  0.43213150  0.02800501  0.90309998    -0.20000
F687        F  0.43940294  0.98006670  0.95740250    -0.20300
F688        F  0.41008760  0.03839166  0.96612209    -0.22900
C689        C  0.63513987  0.52789795  0.17722591    -0.05800
C690        C  0.61032379  0.55163820  0.16477696     0.00100
C691        C  0.61103427  0.57397985  0.12482899    -0.08400
C692        C  0.63385787  0.56497325  0.09582542    -0.05800
C693        C  0.65799307  0.53879915  0.10686846     0.00100
C694        C  0.65989467  0.52385304  0.15034701    -0.08300
C695        C  0.68742552  0.50560535  0.17126427     0.62000
H696        H  0.63542725  0.51266871  0.20866767     0.12700
H697        H  0.63269248  0.57958644  0.06440396     0.12700
C698        C  0.58894576  0.60855627  0.11169730     0.62300
F699        F  0.69072440  0.52321914  0.21228841    -0.22900
F700        F  0.71281667  0.51637278  0.14917828    -0.20200
F701        F  0.67882149  0.95477734  0.16053351    -0.19900
F702        F  0.57437070  0.62626973  0.14659720    -0.20000
F703        F  0.56833809  0.09527986  0.07483079    -0.20300
F704        F  0.60484424  0.14613572  0.07882738    -0.22900
C705        C  0.38962400  0.95547884  0.12875450    -0.05800
C706        C  0.38104143  0.99114308  0.15453295     0.00100
C707        C  0.35372693  0.51841653  0.15229008    -0.08400
C708        C  0.33435633  0.49999085  0.12089003    -0.05800
C709        C  0.34297026  0.95584539  0.08980727     0.00100
C710        C  0.37110171  0.93729103  0.09656339    -0.08300
C711        C  0.38166591  0.89809110  0.07060512     0.62000
H712        H  0.41121483  0.94186399  0.13421004     0.12700
H713        H  0.31492957  0.51772146  0.11122195     0.12700
C714        C  0.34816125  0.56371365  0.17133220     0.62300
F715        F  0.41136030  0.89069033  0.07704678    -0.22900
F716        F  0.37738444  0.90488464  0.02715512    -0.20200
F717        F  0.36628043  0.86078384  0.08323496    -0.19900
F718        F  0.37172219  0.59170272  0.16245356    -0.20000
F719        F  0.34499462  0.56046337  0.21542039    -0.20300
F720        F  0.32293372  0.58216293  0.15460901    -0.22900
C721        C  0.48107825  0.55561004  0.50563429    -0.05800
C722        C  0.49783571  0.52466104  0.48291054     0.00100
C723        C  0.49520674  0.97263950  0.49389727    -0.08400
C724        C  0.49631507  0.97171056  0.53928618    -0.05800
C725        C  0.49679566  0.52552169  0.57452522     0.00100
C726        C  0.48063254  0.55711738  0.55109826    -0.08300
C727        C  0.46395656  0.59341863  0.57391684     0.62000
H728        H  0.46852983  0.57911675  0.48731066     0.12700
H729        H  0.49333288  0.94074852  0.55608019     0.12700
C730        C  0.49101217  0.92990220  0.46861413     0.62300
F731        F  0.45345407  0.62433476  0.54534313    -0.22900
F732        F  0.48239339  0.61521246  0.60290837    -0.20200
F733        F  0.44018128  0.57549416  0.59560908    -0.19900
F734        F  0.51451190  0.92437491  0.44102858    -0.20000
F735        F  0.46523318  0.93113822  0.44495379    -0.20300
F736        F  0.48939879  0.89351535  0.49527015    -0.22900
loop_ 
_geom_bond_atom_site_label_1 
_geom_bond_atom_site_label_2 
_geom_bond_distance 
_geom_bond_site_symmetry_2 
_ccdc_geom_bond_type 
N1            N2   1.320       .  A
N1            C5   1.350       .  A
N1           Cu9   2.096       .  S
N2            C3   1.341       .  A
N2         Cu376   2.057       .  S
C3            C4   1.384       .  A
C3            H6   1.080       .  S
C4            C5   1.394       .  A
C4          C322   1.492       .  S
C5            H7   1.082       .  S
Cu8          N11   2.057       .  S
Cu8         N370   2.058       .  S
Cu9          N19   2.098       .  S
Cu10         N12   2.119       .  S
Cu10        N386   2.120       .  S
N11          N12   1.322       .  A
N11          C15   1.342       .  A
N12          C13   1.355       .  A
C13          C14   1.395       .  A
C13          H16   1.082       .  S
C14          C15   1.378       .  A
C14         C338   1.486       .  S
C15          H17   1.082       .  S
N18          N19   1.327       .  A
N18          C22   1.350       .  A
N18        Cu378   2.114       .  S
N19          C20   1.350       .  A
C20          C21   1.384       .  A
C20          H23   1.082       .  S
C21          C22   1.388       .  A
C21         C354   1.491       .  S
C22         H392   1.082       .  S
H24         C390   1.082       .  S
N25          N26   1.321       .  A
N25          C29   1.352       .  A
N25         Cu33   2.101       .  S
N26          C27   1.342       .  A
N26         Cu32   2.062       .  S
C27          C28   1.382       .  A
C27          H30   1.081       .  S
C28          C29   1.392       .  A
C28         C306   1.489       .  S
C29          H31   1.082       .  S
Cu32        N403   2.062       .  S
Cu33         N43   2.102       .  S
Cu34         N36   2.098       .  S
Cu34         N42   2.100       .  S
N35          N36   1.321   1_565  A
N35          C39   1.342       .  A
N35        Cu400   2.059       .  S
N36          C37   1.351       .  A
C37          C38   1.392       .  A
C37          H40   1.082       .  S
C38          C39   1.383   1_545  A
C38         C290   1.489       .  S
C39          H41   1.081       .  S
N42         N411   1.326   1_545  A
N42          C46   1.349       .  A
N43         N410   1.326       .  A
N43          C44   1.349       .  A
C44         C413   1.387       .  A
C44          H47   1.081       .  S
C45          C46   1.386       .  A
C45         C412   1.384   1_545  A
C45         C357   1.488       .  S
C46          H48   1.082       .  S
C49          C50   1.536       .  S
C49          C55   1.549       .  S
C49          C53   1.531   1_554  S
C49         C245   1.550       .  S
C50          H57   1.082       .  S
C50          C51   1.363       .  D
C51          C52   1.546       .  S
C51         C277   1.494       .  S
C52          C56   1.550       .  S
C52          C54   1.549   1_554  S
C52          H58   1.098       .  S
C53          H59   1.087       .  S
C53          C54   1.362       .  D
C54         C261   1.497       .  S
C55          H60   1.085       .  S
C55          C56   1.379       .  D
C56         C226   1.513       .  S
C61          C62   1.538   1_554  S
C61          C67   1.553       .  S
C61          C65   1.548       .  S
C61         C229   1.563       .  S
C62          H69   1.086       .  S
C62          C63   1.368       .  D
C63         C432   1.546   1_556  S
C63         C309   1.497       .  S
C64          C68   1.541       .  S
C64         C431   1.550   1_554  S
C64         C434   1.543       .  S
C64          H70   1.102       .  S
C65          H71   1.079       .  S
C65          C66   1.369       .  D
C66         C432   1.542       .  S
C66         C341   1.501       .  S
C67          H72   1.085       .  S
C67         C436   1.373       .  D
C68         C435   1.376       .  D
C68         C242   1.512   1_565  S
N73          N74   1.320       .  A
N73          C77   1.352       .  A
N73         Cu81   2.095       .  S
N74          C75   1.340       .  A
N74         Cu80   2.052       .  S
C75          C76   1.377       .  A
C75          H78   1.082       .  S
C76          C77   1.390       .  A
C76         C274   1.478       .  S
C77          H79   1.082       .  S
Cu80         N83   2.051   1_455  S
Cu81         N91   2.097       .  S
Cu82         N84   2.105       .  S
Cu82         N90   2.108       .  S
N83          N84   1.321       .  A
N83          C87   1.340       .  A
N84          C85   1.353       .  A
C85          C86   1.392       .  A
C85          H88   1.082       .  S
C86          C87   1.377       .  A
C86         C194   1.483       .  S
C87          H89   1.081       .  S
N90          N91   1.328   1_655  A
N90          C94   1.350       .  A
N91          C92   1.348       .  A
C92          C93   1.382   1_455  A
C92          H95   1.082       .  S
C93          C94   1.386       .  A
C93         C213   1.486       .  S
C94          H96   1.082       .  S
N97          N98   1.320       .  A
N97         C101   1.349       .  A
N97        Cu105   2.093       .  S
N98          C99   1.343       .  A
N98        Cu104   2.065       .  S
C99         C100   1.385       .  A
C99         H102   1.080       .  S
C100        C101   1.393       .  A
C100        C178   1.494       .  S
C101        H103   1.082       .  S
Cu104       N107   2.065   1_655  S
Cu105       N115   2.095       .  S
Cu106       N108   2.097       .  S
Cu106       N114   2.098       .  S
N107        N108   1.319       .  A
N107        C111   1.340       .  A
N108        C109   1.351       .  A
C109        C110   1.397       .  A
C109        H112   1.077       .  S
C110        C111   1.388       .  A
C110        C258   1.503       .  S
C111        H113   1.082       .  S
N114        N115   1.325   1_455  A
N114        C118   1.349       .  A
N115        C116   1.349       .  A
C116        C117   1.385   1_655  A
C116        H119   1.082       .  S
C117        C118   1.385       .  A
C117        C210   1.487       .  S
C118        H120   1.082       .  S
C121        C122   1.537       .  S
C121        C127   1.554       .  S
C121        C125   1.535   1_554  S
C121        C165   1.547       .  S
C122        H129   1.085       .  S
C122        C123   1.363       .  D
C123        C124   1.545       .  S
C123        C197   1.488       .  S
C124        C128   1.542       .  S
C124        C126   1.545   1_554  S
C124        H130   1.109       .  S
C125        H131   1.087       .  S
C125        C126   1.363       .  D
C126        C181   1.489       .  S
C127        H132   1.082       .  S
C127        C128   1.367       .  D
C128        C146   1.495       .  S
C133        C134   1.533       .  S
C133        C139   1.553       .  S
C133        C137   1.532   1_554  S
C133        C162   1.545       .  S
C134        H141   1.083       .  S
C134        C503   1.368       .  D
C135        C136   1.556       .  S
C135        C502   1.370   1_545  D
C135        C325   1.515       .  S
C136        C140   1.536       .  S
C136        C138   1.552   1_554  S
C136        H142   1.106       .  S
C137        H143   1.084       .  S
C137        C506   1.362       .  D
C138        C505   1.363   1_545  D
C138        C293   1.493       .  S
C139        H512   1.083       .  S
C139        C508   1.365       .  D
C140        C507   1.364       .  D
C140        C149   1.493       .  S
H144        C507   1.082       .  S
C145        C146   1.403       .  A
C145        C150   1.407       .  A
C145        H152   1.082       .  S
C146        C147   1.418   1_554  A
C147        C148   1.411       .  A
C147        C154   1.514       .  S
C148        C149   1.404   1_556  A
C148        H153   1.082       .  S
C149        C150   1.417       .  A
C150        C151   1.515       .  S
C151        F155   1.385       .  S
C151        F156   1.380       .  S
C151        F157   1.379       .  S
C154        F158   1.380       .  S
C154        F159   1.379       .  S
C154        F160   1.384       .  S
C161        C162   1.409       .  A
C161        C166   1.408       .  A
C161        H168   1.078       .  S
C162        C163   1.428       .  A
C163        C164   1.405       .  A
C163        C170   1.528       .  S
C164        C165   1.411       .  A
C164        H169   1.076       .  S
C165        C166   1.433       .  A
C166        C167   1.529       .  S
C167        F171   1.385       .  S
C167        F172   1.376       .  S
C167        F173   1.383       .  S
C170        F174   1.383   1_554  S
C170        F175   1.376       .  S
C170        F176   1.385       .  S
C177        C178   1.403       .  A
C177        C182   1.408       .  A
C177        H184   1.084       .  S
C178        C179   1.422       .  A
C179        C180   1.407       .  A
C179        C186   1.519       .  S
C180        C181   1.402       .  A
C180        H185   1.084   1_556  S
C181        C182   1.426       .  A
C182        C183   1.521       .  S
C183        F187   1.384       .  S
C183        F188   1.383       .  S
C183        F189   1.376       .  S
C186        F190   1.383       .  S
C186        F191   1.382       .  S
C186        F192   1.385       .  S
C193        C194   1.404       .  A
C193        C198   1.412       .  A
C193        H200   1.083       .  S
C194        C195   1.419       .  A
C195        C196   1.406       .  A
C195        C202   1.520       .  S
C196        C197   1.401       .  A
C196        H201   1.083       .  S
C197        C198   1.416       .  A
C198        C199   1.514       .  S
C199        F203   1.384       .  S
C199        F204   1.381       .  S
C199        F205   1.382       .  S
C202        F206   1.381       .  S
C202        F207   1.383       .  S
C202        F208   1.385       .  S
C209        C210   1.404   1_655  A
C209        C214   1.413       .  A
C209        H216   1.083       .  S
C210        C211   1.417       .  A
C211        C212   1.411       .  A
C211        C218   1.517       .  S
C212        C213   1.402   1_455  A
C212        H217   1.083       .  S
C213        C214   1.417       .  A
C214        C215   1.517       .  S
C215        F219   1.385       .  S
C215        F220   1.382       .  S
C215        F221   1.383   1_655  S
C218        F222   1.383   1_455  S
C218        F223   1.382       .  S
C218        F224   1.384       .  S
C225        C226   1.403       .  A
C225        C230   1.408       .  A
C225        H232   1.084       .  S
C226        C227   1.421   1_554  A
C227        C228   1.418   1_556  A
C227        C234   1.519       .  S
C228        C229   1.417       .  A
C228        H233   1.080   1_554  S
C229        C230   1.432       .  A
C230        C231   1.517       .  S
C231        F235   1.382       .  S
C231        F236   1.378       .  S
C231        F237   1.386       .  S
C234        F238   1.380       .  S
C234        F239   1.380       .  S
C234        F240   1.385       .  S
C241        C242   1.405       .  A
C241        C246   1.407       .  A
C241        H248   1.084   1_545  S
C242        C243   1.426   1_554  A
C243        C244   1.414       .  A
C243        C250   1.520       .  S
C244        C245   1.411   1_556  A
C244        H249   1.080       .  S
C245        C246   1.433       .  A
C246        C247   1.526       .  S
C247        F251   1.386       .  S
C247        F252   1.379       .  S
C247        F253   1.383       .  S
C250        F254   1.379       .  S
C250        F255   1.380       .  S
C250        F256   1.385       .  S
C257        C258   1.410       .  A
C257        C262   1.408       .  A
C257        H264   1.081       .  S
C258        C259   1.423       .  A
C259        C260   1.413       .  A
C259        C266   1.519       .  S
C260        C261   1.407       .  A
C260        H265   1.083       .  S
C261        C262   1.414       .  A
C262        C263   1.517   1_556  S
C263        F267   1.385       .  S
C263        F268   1.379       .  S
C263        F269   1.382       .  S
C266        F270   1.381       .  S
C266        F271   1.383       .  S
C266        F272   1.385       .  S
C273        C274   1.404       .  A
C273        C278   1.414       .  A
C273        H280   1.083       .  S
C274        C275   1.413       .  A
C275        C276   1.403       .  A
C275        C282   1.520       .  S
C276        C277   1.406       .  A
C276        H281   1.082       .  S
C277        C278   1.419       .  A
C278        C279   1.517       .  S
C279        F283   1.384       .  S
C279        F284   1.379       .  S
C279        F285   1.383       .  S
C282        F286   1.381       .  S
C282        F287   1.383       .  S
C282        F288   1.385       .  S
C289        C290   1.404       .  A
C289        C294   1.409       .  A
C289        H296   1.084       .  S
C290        C659   1.421       .  A
C291        C292   1.406       .  A
C291        C658   1.422       .  A
C291        C298   1.518       .  S
C292        C661   1.400       .  A
C292        H297   1.079   1_556  S
C293        C294   1.421       .  A
C293        C660   1.400       .  A
C294        C295   1.516       .  S
C295        F299   1.384       .  S
C295        F301   1.382       .  S
C295        F668   1.383   1_545  S
C298        F302   1.383       .  S
C298        F304   1.385       .  S
C298        F671   1.383       .  S
F300        C663   1.383       .  S
F303        C666   1.382       .  S
C305        C310   1.408       .  A
C305        C674   1.401       .  A
C305        H312   1.084       .  S
C306        C307   1.419       .  A
C306        C673   1.402       .  A
C307        C308   1.405       .  A
C307        C314   1.519       .  S
C308        C309   1.404       .  A
C308        H313   1.084       .  S
C309        C678   1.428       .  A
C310        C677   1.428       .  A
C310        C311   1.522       .  S
C311        F315   1.385       .  S
C311        F316   1.382       .  S
C311        F317   1.383       .  S
C314        F318   1.383       .  S
C314        F319   1.382       .  S
C314        F320   1.385       .  S
C321        C322   1.402       .  A
C321        C326   1.410       .  A
C321        H328   1.084       .  S
C322        C323   1.418       .  A
C323        C324   1.405       .  A
C323        C330   1.520       .  S
C324        C325   1.409       .  A
C324        H329   1.075       .  S
C325        C326   1.433       .  A
C326        C327   1.522   1_545  S
C327        F331   1.385   1_565  S
C327        F332   1.380   1_565  S
C327        F701   1.383       .  S
C330        F334   1.383       .  S
C330        F703   1.382       .  S
C330        F704   1.385       .  S
F333        C695   1.383       .  S
F335        C698   1.382       .  S
F336        C698   1.385       .  S
C337        C338   1.398       .  A
C337        C342   1.407       .  A
C337        H344   1.084       .  S
C338        C707   1.415       .  A
C339        C340   1.414   1_545  A
C339        C706   1.415   1_545  A
C339        C346   1.515       .  S
C340        C709   1.406       .  A
C340        H345   1.083   1_565  S
C341        C342   1.423       .  A
C341        C708   1.408       .  A
C342        C343   1.514       .  S
C343        F347   1.385       .  S
C343        F348   1.382       .  S
C343        F349   1.377       .  S
C346        F350   1.383       .  S
C346        F351   1.382       .  S
C346        F352   1.385       .  S
C353        C354   1.405       .  A
C353        C358   1.413       .  A
C353        H360   1.083       .  S
C354        C723   1.418   1_545  A
C355        C356   1.413       .  A
C355        C722   1.421       .  A
C355        C362   1.518       .  S
C356        C725   1.404       .  A
C356        H361   1.083       .  S
C357        C358   1.417       .  A
C357        C724   1.403   1_545  A
C358        C359   1.518       .  S
C359        F363   1.384       .  S
C359        F364   1.382       .  S
C359        F365   1.384       .  S
C362        F366   1.381       .  S
C362        F367   1.383       .  S
C362        F368   1.385       .  S
N369        N370   1.320       .  A
N369        C373   1.351       .  A
N369       Cu377   2.095       .  S
N370        C371   1.341       .  A
C371        C372   1.384       .  A
C371        H374   1.081       .  S
C372        C373   1.394       .  A
C372        C690   1.491       .  S
C373        H375   1.082       .  S
Cu376       N379   2.056       .  S
Cu377       N387   2.097       .  S
Cu378       N380   2.113       .  S
N379        N380   1.321       .  A
N379        C383   1.341       .  A
N380        C381   1.354       .  A
C381        C382   1.394       .  A
C381        H384   1.082   1_545  S
C382        C383   1.379       .  A
C382        C706   1.486   1_545  S
C383        H385   1.082       .  S
N386        N387   1.327       .  A
N386        C390   1.352       .  A
N387        C388   1.349       .  A
C388        C389   1.386       .  A
C388        H391   1.081       .  S
C389        C390   1.390       .  A
C389        C722   1.496       .  S
N393        N394   1.321       .  A
N393        C397   1.350       .  A
N393       Cu401   2.093       .  S
N394        C395   1.341       .  A
N394       Cu400   2.058       .  S
C395        C396   1.381       .  A
C395        H398   1.080       .  S
C396        C397   1.391       .  A
C396        C674   1.485       .  S
C397        H399   1.082       .  S
Cu401       N411   2.095       .  S
Cu402       N404   2.103       .  S
Cu402       N410   2.105       .  S
N403        N404   1.321       .  A
N403        C407   1.342       .  A
N404        C405   1.353       .  A
C405        C406   1.393       .  A
C405        H408   1.082       .  S
C406        C407   1.382       .  A
C406        C658   1.491       .  S
C407        H409   1.081       .  S
N410        C414   1.350       .  A
N411        C412   1.349       .  A
C412        H415   1.082       .  S
C413        C414   1.388       .  A
C413        C725   1.494       .  S
C414        H416   1.082       .  S
C417        C418   1.540       .  S
C417        C423   1.546       .  S
C417        C421   1.531   1_554  S
C417        C613   1.549       .  S
C418        H425   1.082       .  S
C418        C419   1.366       .  D
C419        C420   1.544       .  S
C419        C645   1.496       .  S
C420        C424   1.548       .  S
C420        C422   1.548   1_554  S
C420        H426   1.098       .  S
C421        H427   1.087       .  S
C421        C422   1.363       .  D
C422        C629   1.497       .  S
C423        H428   1.084       .  S
C423        C424   1.376       .  D
C424        C594   1.509       .  S
C429        C430   1.528   1_554  S
C429        C435   1.552       .  S
C429        C433   1.545       .  S
C429        C597   1.550       .  S
C430        H437   1.084       .  S
C430        C431   1.363       .  D
C431        C677   1.496       .  S
C432        C436   1.538       .  S
C432        H438   1.105       .  S
C433        H439   1.084       .  S
C433        C434   1.367       .  D
C434        C709   1.495       .  S
C435        H440   1.084       .  S
C436        C610   1.506       .  S
N441        N442   1.321       .  A
N441        C445   1.352       .  A
N441       Cu449   2.101       .  S
N442        C443   1.342       .  A
N442       Cu448   2.055       .  S
C443        C444   1.378       .  A
C443        H446   1.082       .  S
C444        C445   1.391       .  A
C444        C642   1.480       .  S
C445        H447   1.082       .  S
Cu448       N451   2.055   1_455  S
Cu449       N459   2.104       .  S
Cu450       N452   2.109       .  S
Cu450       N458   2.111       .  S
N451        N452   1.321       .  A
N451        C455   1.341       .  A
N452        C453   1.354       .  A
C453        C454   1.393       .  A
C453        H456   1.082       .  S
C454        C455   1.378       .  A
C454        C562   1.485       .  S
C455        H457   1.081       .  S
N458        N459   1.327   1_655  A
N458        C462   1.351       .  A
N459        C460   1.350       .  A
C460        C461   1.385       .  A
C460        H463   1.082       .  S
C461        C462   1.387   1_455  A
C461        C581   1.492       .  S
C462        H464   1.082       .  S
N465        N466   1.320       .  A
N465        C469   1.353       .  A
N465       Cu473   2.106       .  S
N466        C467   1.341       .  A
N466       Cu472   2.063       .  S
C467        C468   1.384       .  A
C467        H470   1.077       .  S
C468        C469   1.397       .  A
C468        C546   1.498       .  S
C469        H471   1.082       .  S
Cu472       N475   2.063   1_655  S
Cu473       N483   2.108       .  S
Cu474       N476   2.094       .  S
Cu474       N482   2.097       .  S
N475        N476   1.319       .  A
N475        C479   1.341       .  A
N476        C477   1.351       .  A
C477        C478   1.397       .  A
C477        H480   1.077       .  S
C478        C479   1.387       .  A
C478        C626   1.500       .  S
C479        H481   1.082       .  S
N482        N483   1.326   1_455  A
N482        C486   1.349       .  A
N483        C484   1.351       .  A
C484        C485   1.389   1_655  A
C484        H487   1.082       .  S
C485        C486   1.386       .  A
C485        C578   1.494       .  S
C486        H488   1.081       .  S
C489        C490   1.539       .  S
C489        C495   1.552       .  S
C489        C493   1.534   1_554  S
C489        C533   1.550       .  S
C490        H497   1.085       .  S
C490        C491   1.366       .  D
C491        C492   1.546       .  S
C491        C565   1.498       .  S
C492        C496   1.545       .  S
C492        C494   1.546   1_554  S
C492        H498   1.106       .  S
C493        H499   1.087       .  S
C493        C494   1.362       .  D
C494        C549   1.491       .  S
C495        H500   1.082       .  S
C495        C496   1.369       .  D
C496        C514   1.495       .  S
C501        C502   1.536       .  S
C501        C507   1.556   1_565  S
C501        C505   1.531   1_554  S
C501        C530   1.550       .  S
C502        H509   1.082       .  S
C503        C504   1.557       .  S
C503        C693   1.511       .  S
C504        C508   1.539       .  S
C504        C506   1.552   1_554  S
C504        H510   1.107       .  S
C505        H511   1.085       .  S
C506        C661   1.495       .  S
C508        C517   1.492       .  S
C513        C514   1.405       .  A
C513        C518   1.406       .  A
C513        H520   1.083       .  S
C514        C515   1.418   1_554  A
C515        C516   1.410       .  A
C515        C522   1.516       .  S
C516        C517   1.404   1_556  A
C516        H521   1.082       .  S
C517        C518   1.416       .  A
C518        C519   1.516       .  S
C519        F523   1.385       .  S
C519        F524   1.380       .  S
C519        F525   1.379       .  S
C522        F526   1.380       .  S
C522        F527   1.378       .  S
C522        F528   1.385       .  S
C529        C530   1.409       .  A
C529        C534   1.407       .  A
C529        H536   1.077       .  S
C530        C531   1.431       .  A
C531        C532   1.409       .  A
C531        C538   1.528       .  S
C532        C533   1.411       .  A
C532        H537   1.076   1_554  S
C533        C534   1.432       .  A
C534        C535   1.529       .  S
C535        F539   1.385       .  S
C535        F540   1.375       .  S
C535        F541   1.383       .  S
C538        F542   1.383   1_554  S
C538        F543   1.376       .  S
C538        F544   1.385       .  S
C545        C546   1.404       .  A
C545        C550   1.410       .  A
C545        H552   1.084       .  S
C546        C547   1.425       .  A
C547        C548   1.408       .  A
C547        C554   1.520       .  S
C548        C549   1.401       .  A
C548        H553   1.084       .  S
C549        C550   1.425       .  A
C550        C551   1.521       .  S
C551        F555   1.384       .  S
C551        F556   1.383       .  S
C551        F557   1.377       .  S
C554        F558   1.383       .  S
C554        F559   1.381       .  S
C554        F560   1.385       .  S
C561        C562   1.403       .  A
C561        C566   1.415       .  A
C561        H568   1.083       .  S
C562        C563   1.417       .  A
C563        C564   1.405       .  A
C563        C570   1.519       .  S
C564        C565   1.404       .  A
C564        H569   1.082       .  S
C565        C566   1.422       .  A
C566        C567   1.516       .  S
C567        F571   1.385       .  S
C567        F572   1.380       .  S
C567        F573   1.380       .  S
C570        F574   1.381       .  S
C570        F575   1.384       .  S
C570        F576   1.385       .  S
C577        C578   1.404   1_655  A
C577        C582   1.413       .  A
C577        H584   1.083       .  S
C578        C579   1.421       .  A
C579        C580   1.414       .  A
C579        C586   1.519       .  S
C580        C581   1.404       .  A
C580        H585   1.083       .  S
C581        C582   1.418   1_455  A
C582        C583   1.517       .  S
C583        F587   1.384       .  S
C583        F588   1.382       .  S
C583        F589   1.383   1_655  S
C586        F590   1.384   1_455  S
C586        F591   1.381       .  S
C586        F592   1.385       .  S
C593        C594   1.405       .  A
C593        C598   1.405       .  A
C593        H600   1.083       .  S
C594        C595   1.421   1_554  A
C595        C596   1.413       .  A
C595        C602   1.518       .  S
C596        C597   1.414   1_556  A
C596        H601   1.080       .  S
C597        C598   1.429       .  A
C598        C599   1.520       .  S
C599        F603   1.382       .  S
C599        F604   1.376       .  S
C599        F605   1.386       .  S
C602        F606   1.382       .  S
C602        F607   1.379       .  S
C602        F608   1.385       .  S
C609        C610   1.404       .  A
C609        C614   1.408       .  A
C609        H616   1.084       .  S
C610        C611   1.423   1_554  A
C611        C612   1.412       .  A
C611        C618   1.520       .  S
C612        C613   1.411   1_556  A
C612        H617   1.080       .  S
C613        C614   1.431       .  A
C614        C615   1.523       .  S
C615        F619   1.385       .  S
C615        F620   1.379       .  S
C615        F621   1.383       .  S
C618        F622   1.378       .  S
C618        F623   1.378       .  S
C618        F624   1.385       .  S
C625        C626   1.409       .  A
C625        C630   1.408       .  A
C625        H632   1.082       .  S
C626        C627   1.422       .  A
C627        C628   1.412       .  A
C627        C634   1.519       .  S
C628        C629   1.406       .  A
C628        H633   1.083       .  S
C629        C630   1.415       .  A
C630        C631   1.517   1_556  S
C631        F635   1.385       .  S
C631        F636   1.379       .  S
C631        F637   1.382       .  S
C634        F638   1.381       .  S
C634        F639   1.383       .  S
C634        F640   1.385       .  S
C641        C642   1.404       .  A
C641        C646   1.414       .  A
C641        H648   1.083       .  S
C642        C643   1.414       .  A
C643        C644   1.403       .  A
C643        C650   1.519       .  S
C644        C645   1.405       .  A
C644        H649   1.081       .  S
C645        C646   1.420       .  A
C646        C647   1.518       .  S
C647        F651   1.385       .  S
C647        F652   1.380       .  S
C647        F653   1.383       .  S
C650        F654   1.382       .  S
C650        F655   1.383       .  S
C650        F656   1.385       .  S
C657        C658   1.404       .  A
C657        C662   1.410       .  A
C657        H664   1.084       .  S
C659        C660   1.405       .  A
C659        C666   1.518       .  S
C660        H665   1.078       .  S
C661        C662   1.423       .  A
C662        C663   1.517       .  S
C663        F667   1.384       .  S
C663        F669   1.381       .  S
C666        F670   1.383       .  S
C666        F672   1.385       .  S
C673        C678   1.411       .  A
C673        H680   1.085       .  S
C674        C675   1.420       .  A
C675        C676   1.404       .  A
C675        C682   1.518   1_565  S
C676        C677   1.402       .  A
C676        H681   1.083       .  S
C678        C679   1.522       .  S
C679        F683   1.385       .  S
C679        F684   1.379       .  S
C679        F685   1.382       .  S
C682        F686   1.383       .  S
C682        F687   1.382   1_545  S
C682        F688   1.385       .  S
C689        C690   1.402       .  A
C689        C694   1.410       .  A
C689        H696   1.084       .  S
C690        C691   1.419       .  A
C691        C692   1.405       .  A
C691        C698   1.519       .  S
C692        C693   1.406       .  A
C692        H697   1.077       .  S
C693        C694   1.431       .  A
C694        C695   1.521       .  S
C695        F699   1.385       .  S
C695        F700   1.380       .  S
C698        F702   1.382       .  S
C705        C706   1.401       .  A
C705        C710   1.408       .  A
C705        H712   1.083       .  S
C707        C708   1.416       .  A
C707        C714   1.515       .  S
C708        H713   1.083       .  S
C709        C710   1.420       .  A
C710        C711   1.515       .  S
C711        F715   1.385       .  S
C711        F716   1.381       .  S
C711        F717   1.378       .  S
C714        F718   1.384       .  S
C714        F719   1.383       .  S
C714        F720   1.384       .  S
C721        C722   1.405       .  A
C721        C726   1.414       .  A
C721        H728   1.083       .  S
C723        C724   1.412       .  A
C723        C730   1.517       .  S
C724        H729   1.083       .  S
C725        C726   1.419       .  A
C726        C727   1.518       .  S
C727        F731   1.385       .  S
C727        F732   1.384       .  S
C727        F733   1.381       .  S
C730        F734   1.383       .  S
C730        F735   1.381       .  S
C730        F736   1.385       .  S
