geometry optimzed in LAMMPS
_audit_creation_date              2020-11-30 
_audit_creation_method            'lammps2cif' 
_symmetry_space_group_name_H-M    'P1' 
_symmetry_Int_Tables_number       1 
_symmetry_cell_setting            triclinic 
loop_ 
_symmetry_equiv_pos_as_xyz 
  x,y,z 
_cell_length_a                    42.59687236 
_cell_length_b                    46.48042467579983 
_cell_length_c                    25.49606403862989 
_cell_angle_alpha                 89.92717328682097 
_cell_angle_beta                  90.24918976572158 
_cell_angle_gamma                 90.56769137530401 
loop_ 
_atom_site_label 
_atom_site_type_symbol 
_atom_site_fract_x 
_atom_site_fract_y 
_atom_site_fract_z 
_atom_site_charge 
O1          O  0.44366089  0.66401339  0.56425740    -0.56400
C2          C  0.94366499  0.67637443  0.40454933     0.76200
O3          O  0.40606842  0.74738523  0.50547942    -0.57600
C4          C  0.44754336  0.67797480  0.60646201     0.76200
C5          C  0.00556258  0.73392281  0.49868796     0.78600
Cd6        Cd  0.44356067  0.70618219  0.50459847     1.37500
O7          O  0.94319702  0.66281255  0.44768561    -0.56400
O8          O  0.00134261  0.70696222  0.49925096    -0.55200
C9          C  0.38122628  0.73209049  0.50568718     0.78500
O10         O  0.98074060  0.74879733  0.50033160    -0.57600
O11         O  0.94320712  0.70353328  0.40775809    -0.56100
O12         O  0.44921898  0.70506721  0.60182476    -0.56000
O13         O  0.38529072  0.70519092  0.50620801    -0.55200
O14         O  0.19275148  0.85270106  0.43370651    -0.56400
C15         C  0.19758856  0.84408850  0.59094389     0.76200
O16         O  0.15710003  0.76994864  0.49339090    -0.57600
C17         C  0.19497480  0.83830418  0.39180422     0.76200
C18         C  0.25553228  0.78244072  0.49886396     0.78600
Cd19       Cd  0.19474053  0.81132296  0.49443257     1.37500
O20         O  0.20236254  0.85557967  0.54663325    -0.56400
O21         O  0.25254604  0.80934233  0.49428564    -0.55200
C22         C  0.13230890  0.78483248  0.49421118     0.78500
O23         O  0.23006683  0.76817979  0.50214555    -0.57600
O24         O  0.19056114  0.81756350  0.59084948    -0.56100
O25         O  0.19702267  0.81132565  0.39724969    -0.56000
O26         O  0.13649534  0.81180562  0.49552245    -0.55200
C27         C  0.21297180  0.90876281  0.78545163     0.04500
C28         C  0.20868163  0.89610407  0.83535084    -0.11600
C29         C  0.21268521  0.91269676  0.88094236     0.02000
C30         C  0.22186301  0.94157159  0.87681194    -0.10200
C31         C  0.22734093  0.95417655  0.82790640     0.04500
C32         C  0.22193280  0.93801116  0.78231607    -0.09600
H33         H  0.20235778  0.87354083  0.83873852     0.10100
H34         H  0.22550739  0.95417386  0.91214113     0.07600
H35         H  0.22558540  0.94800067  0.74439120     0.07500
C36         C  0.29610128  0.11634356  0.79765798     0.04500
C37         C  0.28431935  0.08818967  0.79041600    -0.11600
C38         C  0.27679210  0.07084774  0.83361532     0.02000
C39         C  0.28043361  0.08193782  0.88417608    -0.10200
C40         C  0.29222034  0.10978312  0.89225969     0.04500
C41         C  0.30028314  0.12702694  0.84902665    -0.09600
H42         H  0.28103985  0.07976530  0.75114006     0.10100
H43         H  0.27430817  0.06865016  0.91769235     0.07600
H44         H  0.30962918  0.14852353  0.85527940     0.07500
C45         C  0.95872283  0.61188272  0.21066140     0.04500
C46         C  0.95515808  0.62215078  0.15879697    -0.11600
C47         C  0.96251934  0.60436725  0.11605482     0.02000
C48         C  0.97313098  0.57638570  0.12530479    -0.10200
C49         C  0.97676653  0.56591231  0.17640366     0.04500
C50         C  0.96960096  0.58369031  0.21894335    -0.09600
H51         H  0.94674966  0.64374722  0.15178060     0.10100
H52         H  0.97877478  0.56265819  0.09235729     0.07600
H53         H  0.97294703  0.57574096  0.25852888     0.07500
C54         C  0.53623706  0.40183912  0.20715055     0.04500
C55         C  0.02618482  0.43014181  0.21601300    -0.11600
C56         C  0.02043374  0.44867982  0.17383192     0.02000
C57         C  0.02432203  0.43866771  0.12252225    -0.10200
C58         C  0.53419706  0.41047734  0.11294112     0.04500
C59         C  0.54024611  0.39201463  0.15537853    -0.09600
H60         H  0.02321612  0.43782540  0.25578436     0.10100
H61         H  0.01973920  0.45295517  0.08976795     0.07600
H62         H  0.54812396  0.37027541  0.14822062     0.07500
C63         C  0.20518455  0.90100618  0.19528478     0.04500
C64         C  0.21564781  0.92943968  0.20330027    -0.11600
C65         C  0.22264925  0.94723448  0.16064775     0.02000
C66         C  0.21926573  0.93670564  0.10966899    -0.10200
C67         C  0.20882536  0.90847055  0.10068589     0.04500
C68         C  0.20171651  0.89049562  0.14358708    -0.09600
H69         H  0.21881239  0.93758747  0.24280234     0.10100
H70         H  0.22486687  0.95057561  0.07669313     0.07600
H71         H  0.19379541  0.86857754  0.13688055     0.07500
C72         C  0.28527414  0.10953114  0.20623975     0.04500
C73         C  0.27284470  0.08153336  0.21100177    -0.11600
C74         C  0.26738611  0.06470996  0.16636384     0.02000
C75         C  0.27407851  0.07598219  0.11670503    -0.10200
C76         C  0.28624761  0.10394690  0.11122018     0.04500
C77         C  0.29187746  0.12076403  0.15607326    -0.09600
H78         H  0.26774968  0.07274403  0.24945890     0.10100
H79         H  0.26992921  0.06287872  0.08214688     0.07600
H80         H  0.30140412  0.14235337  0.15201643     0.07500
O81         O  0.06210086  0.35217457  0.56058870    -0.56400
C82         C  0.55473376  0.33764607  0.39984464     0.76200
O83         O  0.09582875  0.26816837  0.50324060    -0.57600
C84         C  0.05863382  0.33830933  0.60303727     0.76200
C85         C  0.49700923  0.28195352  0.49883907     0.78600
Cd86       Cd  0.05881982  0.30965534  0.50110857     1.37500
O87         O  0.05793893  0.35187743  0.44195496    -0.56400
O88         O  0.50081071  0.30897767  0.49957728    -0.55200
C89         C  0.12075424  0.28306727  0.49824990     0.78500
O90         O  0.52203669  0.26734708  0.50005484    -0.57600
O91         O  0.55392453  0.31055302  0.40447062    -0.56100
O92         O  0.05567229  0.31130975  0.59844848    -0.56000
O93         O  0.11690336  0.30990131  0.49397128    -0.55200
O94         O  0.30807734  0.16287660  0.55881474    -0.56400
C95         C  0.30335488  0.17344127  0.40032932     0.76200
O96         O  0.27142062  0.24640602  0.49182519    -0.57600
C97         C  0.30966359  0.17756893  0.60056536     0.76200
C98         C  0.37069755  0.23057681  0.49498802     0.78600
Cd99       Cd  0.30805670  0.20447768  0.49840636     1.37500
O100        O  0.30604077  0.16044045  0.44379125    -0.56400
O101        O  0.36600235  0.20379408  0.49044123    -0.55200
C102        C  0.24638901  0.23201826  0.49966442     0.78500
O103        O  0.34629428  0.24575138  0.49999813    -0.57600
O104        O  0.30349085  0.20065065  0.40230565    -0.56100
O105        O  0.31100997  0.20460380  0.59494180    -0.56000
O106        O  0.25011217  0.20538422  0.50730055    -0.55200
C107        C  0.46610968  0.61328273  0.79970624     0.04500
C108        C  0.46100224  0.62302427  0.85135478    -0.11600
C109        C  0.46662346  0.60462421  0.89419250     0.02000
C110        C  0.47734041  0.57666084  0.88514471    -0.10200
C111        C  0.48260786  0.56685766  0.83412652     0.04500
C112        C  0.47718311  0.58523264  0.79157489    -0.09600
H113        H  0.45238258  0.64456061  0.85808018     0.10100
H114        H  0.48150572  0.56238479  0.91807716     0.07600
H115        H  0.48115493  0.57757689  0.75204798     0.07500
C116        C  0.04450499  0.40380769  0.79638794     0.04500
C117        C  0.03415147  0.43213669  0.78782507    -0.11600
C118        C  0.02684331  0.44995805  0.83025099     0.02000
C119        C  0.02998787  0.43956576  0.88139589    -0.10200
C120        C  0.04007694  0.41148768  0.89099814     0.04500
C121        C  0.04749491  0.39353543  0.84841754    -0.09600
H122        H  0.03121583  0.44011197  0.74816877     0.10100
H123        H  0.02399954  0.45333614  0.91411362     0.07600
H124        H  0.05503199  0.37168349  0.85562563     0.07500
C125        C  0.49321319  0.53684807  0.82585320    -0.03900
C126        C  0.47198760  0.51369219  0.83323747    -0.01100
C127        C  0.48265625  0.48511178  0.83077004     0.03900
C128        C  0.51476801  0.47953034  0.82239507    -0.03900
C129        C  0.03575813  0.50262348  0.81291171    -0.01100
C130        C  0.02491628  0.53122977  0.81402365     0.03900
C131        C  0.43925344  0.51934428  0.84439292     0.38600
C132        C  0.06876913  0.49699675  0.80448103     0.38600
C133        C  0.04660509  0.55495959  0.80510599     0.37000
C134        C  0.46066087  0.46137459  0.83742695     0.37000
N135        N  0.06382559  0.57394700  0.79783871    -0.37800
N136        N  0.44304309  0.44246249  0.84234059    -0.37800
N137        N  0.09514447  0.49254217  0.79797888    -0.37300
N138        N  0.41318227  0.52390865  0.85349279    -0.37300
C139        C  0.05734000  0.35306766  0.65522255    -0.03900
C140        C  0.53469620  0.34471317  0.69301532    -0.01100
C141        C  0.53120373  0.36067506  0.73985570     0.03900
C142        C  0.05063498  0.38488167  0.75005272    -0.03900
C143        C  0.07438088  0.39227053  0.71367954    -0.01100
C144        C  0.07784826  0.37637961  0.66678565     0.03900
C145        C  0.51393794  0.32038280  0.68295364     0.38600
C146        C  0.09528934  0.41639832  0.72440963     0.38600
C147        C  0.10329436  0.38351167  0.63126584     0.37000
C148        C  0.50631018  0.35312655  0.77616702     0.37000
N149        N  0.12377483  0.38909003  0.60323134    -0.37800
N150        N  0.48637783  0.34717362  0.80503181    -0.37800
N151        N  0.11193534  0.43569414  0.73275700    -0.37300
N152        N  0.49746796  0.30090087  0.67502383    -0.37300
C153        C  0.15286499  0.26995932  0.49823994    -0.03900
C154        C  0.15988345  0.24673554  0.53211916    -0.01100
C155        C  0.19019191  0.23445325  0.53264185     0.03900
C156        C  0.21429822  0.24537388  0.49962506    -0.03900
C157        C  0.20730179  0.26880419  0.46603359    -0.01100
C158        C  0.17694788  0.28104567  0.46550219     0.03900
C159        C  0.13637385  0.23636778  0.56882463     0.38600
C160        C  0.23095802  0.27983251  0.43027246     0.38600
C161        C  0.17049153  0.30478189  0.43012531     0.37000
C162        C  0.19659380  0.21107239  0.56880570     0.37000
N163        N  0.16548110  0.32378440  0.40202198    -0.37800
N164        N  0.20148954  0.19239579  0.59768087    -0.37800
N165        N  0.24978389  0.28862760  0.40167418    -0.37300
N166        N  0.11762438  0.22832448  0.59826723    -0.37300
C167        C  0.40317724  0.24334262  0.49489286    -0.03900
C168        C  0.42798054  0.22971447  0.52223121    -0.01100
C169        C  0.45855227  0.24200003  0.52288280     0.03900
C170        C  0.46483157  0.26835055  0.49675289    -0.03900
C171        C  0.43995598  0.28187049  0.46916932    -0.01100
C172        C  0.40957360  0.26924723  0.46769480     0.03900
C173        C  0.42192505  0.20349792  0.55166388     0.38600
C174        C  0.44543897  0.30865983  0.44121395     0.38600
C175        C  0.38519231  0.28238956  0.43603479     0.37000
C176        C  0.48318449  0.22796015  0.55260907     0.37000
N177        N  0.36584132  0.29275247  0.41044286    -0.37800
N178        N  0.50284517  0.21678899  0.57631599    -0.37800
N179        N  0.44951176  0.33014230  0.41914392    -0.37300
N180        N  0.41717881  0.18262480  0.57526085    -0.37300
C181        C  0.29122304  0.12686922  0.25443766    -0.03900
C182        C  0.31389848  0.11792743  0.29149184    -0.01100
C183        C  0.31790363  0.13304559  0.33912273     0.03900
C184        C  0.29969202  0.15766617  0.34970558    -0.03900
C185        C  0.27745594  0.16692039  0.31195952    -0.01100
C186        C  0.27304069  0.15140655  0.26487515     0.03900
C187        C  0.33336682  0.09324053  0.28028593     0.38600
C188        C  0.25793764  0.19166405  0.32244145     0.38600
C189        C  0.24867668  0.15992850  0.22823931     0.37000
C190        C  0.34126524  0.12347838  0.37670467     0.37000
N191        N  0.22910741  0.16665982  0.19923176    -0.37800
N192        N  0.35984434  0.11577794  0.40671824    -0.37800
N193        N  0.24238948  0.21140404  0.33080092    -0.37300
N194        N  0.34883741  0.07355104  0.27117793    -0.37300
C195        C  0.23423726  0.97704926  0.16871849    -0.03900
C196        C  0.21276990  0.99968265  0.17502568    -0.01100
C197        C  0.22367761  0.02843196  0.17667414     0.03900
C198        C  0.25602941  0.03456057  0.17117326    -0.03900
C199        C  0.27758364  0.01179991  0.16732718    -0.01100
C200        C  0.26671365  0.98307599  0.16646826     0.03900
C201        C  0.17943056  0.99331962  0.17840349     0.38600
C202        C  0.31093991  0.01806508  0.16386403     0.38600
C203        C  0.28883758  0.95963619  0.16298270     0.37000
C204        C  0.20160793  0.05170690  0.18299491     0.37000
N205        N  0.30634800  0.94081228  0.16052713    -0.37800
N206        N  0.18394369  0.07022067  0.18834327    -0.37800
N207        N  0.33751197  0.02324816  0.16117522    -0.37300
N208        N  0.15286939  0.98806663  0.18101630    -0.37300
C209        C  0.04083348  0.40161376  0.94661613    -0.03900
C210        C  0.06856520  0.40483326  0.97675926    -0.01100
C211        C  0.06705378  0.40462222  0.03218680     0.03900
C212        C  0.03784149  0.40124476  0.05747690    -0.03900
C213        C  0.51085983  0.39463721  0.02746067    -0.01100
C214        C  0.51224287  0.39514289  0.97218784     0.03900
C215        C  0.09818945  0.41048728  0.95078392     0.38600
C216        C  0.48135492  0.38870271  0.05371475     0.38600
C217        C  0.48374420  0.39117988  0.94162572     0.37000
C218        C  0.09515061  0.40949631  0.06336813     0.37000
N219        N  0.46093366  0.38817856  0.91735424    -0.37800
N220        N  0.11743859  0.41321680  0.08868113    -0.37800
N221        N  0.45793249  0.38378965  0.07490012    -0.37300
N222        N  0.12184036  0.41500486  0.93002717    -0.37300
C223        C  0.54314649  0.38306938  0.25304913    -0.03900
C224        C  0.06806418  0.39037873  0.28738124    -0.01100
C225        C  0.07231476  0.37507962  0.33465425     0.03900
C226        C  0.55185015  0.35208502  0.34785120    -0.03900
C227        C  0.52817916  0.34353852  0.31170125    -0.01100
C228        C  0.52366195  0.35918686  0.26473154     0.03900
C229        C  0.08947459  0.41366111  0.27371557     0.38600
C230        C  0.50766339  0.31928755  0.32338915     0.38600
C231        C  0.49812556  0.35145865  0.22944467     0.37000
C232        C  0.09837380  0.38253928  0.36902250     0.37000
N233        N  0.47776508  0.34535089  0.20125368    -0.37800
N234        N  0.11923180  0.38839006  0.39635567    -0.37800
N235        N  0.49135423  0.29983044  0.33221982    -0.37300
N236        N  0.10644242  0.43223377  0.26242928    -0.37300
C237        C  0.95920443  0.61380970  0.06047598    -0.03900
C238        C  0.43282597  0.60449759  0.03119409    -0.01100
C239        C  0.43402937  0.60393538  0.97586290     0.03500
C240        C  0.46130654  0.61349899  0.94952211    -0.03900
C241        C  0.98606003  0.62620241  0.97862728    -0.01100
C242        C  0.98514923  0.62612307  0.03406299     0.03900
C243        C  0.40517595  0.59391992  0.05833425     0.38600
C244        C  0.01341721  0.63745972  0.95154873     0.38600
C245        C  0.01180299  0.63689839  0.06390468     0.37000
C246        C  0.40812181  0.59162472  0.94610136     0.37000
N247        N  0.03316634  0.64552773  0.08748541    -0.37800
N248        N  0.38753208  0.58168150  0.92230027    -0.37800
N249        N  0.03521269  0.64648484  0.92988298    -0.37300
N250        N  0.38312034  0.58566898  0.08026169    -0.37300
C251        C  0.98925964  0.53640905  0.18428349    -0.03900
C252        C  0.02052745  0.53044129  0.17004060    -0.01100
C253        C  0.03109359  0.50181001  0.16860400     0.03900
C254        C  0.01069711  0.47895068  0.18260191    -0.03900
C255        C  0.48025233  0.48507775  0.20095035    -0.01100
C256        C  0.46938801  0.51370044  0.20104280     0.03900
C257        C  0.04168958  0.55384316  0.15603632     0.38600
C258        C  0.45959979  0.46178875  0.21742959     0.38600
C259        C  0.43714397  0.51941085  0.21519729     0.37000
C260        C  0.06286251  0.49578653  0.15185269     0.37000
N261        N  0.41123781  0.52345474  0.22615055    -0.37800
N262        N  0.08814790  0.49092383  0.13827994    -0.37800
N263        N  0.44319923  0.44321263  0.23082231    -0.37300
N264        N  0.05849163  0.57258593  0.14499358    -0.37300
C265        C  0.29611322  0.11942667  0.94734448    -0.03900
C266        C  0.27015954  0.13088653  0.97405717    -0.01100
C267        C  0.26841823  0.12873586  0.02920192     0.03900
C268        C  0.29251956  0.11489681  0.05746807    -0.03900
C269        C  0.32020891  0.10684887  0.03126096    -0.01100
C270        C  0.32218513  0.10962065  0.97627092     0.03900
C271        C  0.24435342  0.14302666  0.94442761     0.38600
C272        C  0.34569351  0.09381575  0.06037082     0.38600
C273        C  0.35020642  0.10072069  0.94883253     0.37000
C274        C  0.24083593  0.13877474  0.05649474     0.37000
N275        N  0.37260126  0.09392202  0.92670458    -0.37800
N276        N  0.21884576  0.14681407  0.07832757    -0.37800
N277        N  0.36605091  0.08331267  0.08342801    -0.37300
N278        N  0.22378717  0.15281398  0.92082780    -0.37300
C279        C  0.30312002  0.13442564  0.75060437    -0.03900
C280        C  0.32429190  0.12453691  0.71219050    -0.01100
C281        C  0.32672704  0.13872714  0.66336758     0.03900
C282        C  0.30911603  0.16379707  0.65336144    -0.03900
C283        C  0.28996761  0.17506131  0.69351083    -0.01100
C284        C  0.28659364  0.16019944  0.74153168     0.03900
C285        C  0.34391753  0.09987841  0.72320369     0.38600
C286        C  0.27224354  0.20114338  0.68457812     0.38600
C287        C  0.26484172  0.17080542  0.78045375     0.37000
C288        C  0.34754306  0.12749603  0.62357343     0.37000
N289        N  0.24748742  0.17942486  0.81134238    -0.37800
N290        N  0.36401658  0.11840601  0.59178049    -0.37800
N291        N  0.25818646  0.22198780  0.67753434    -0.37300
N292        N  0.35968895  0.08032379  0.73213522    -0.37300
C293        C  0.20791879  0.90090138  0.93450140    -0.03900
C294        C  0.23394183  0.89066531  0.96316720    -0.01100
C295        C  0.23276020  0.88932199  0.01847551     0.03900
C296        C  0.20585521  0.89892454  0.04522422    -0.03900
C297        C  0.17879485  0.90635234  0.01622182    -0.01100
C298        C  0.17971124  0.90692278  0.96090616     0.03900
C299        C  0.26287756  0.88421422  0.93600860     0.38600
C300        C  0.15105074  0.91615901  0.04337790     0.38600
C301        C  0.15256914  0.91629060  0.93112668     0.37000
C302        C  0.26017040  0.88049110  0.04807487     0.37000
N303        N  0.13104686  0.92379121  0.90706737    -0.37800
N304        N  0.28207926  0.87342052  0.07159010    -0.37800
N305        N  0.12899711  0.92423822  0.06498780    -0.37300
N306        N  0.28598070  0.87928618  0.91420994    -0.37300
C307        C  0.24077503  0.98384936  0.82532119    -0.03900
C308        C  0.22341061  0.00662937  0.80318686    -0.01100
C309        C  0.23557848  0.03501540  0.80425992     0.03900
C310        C  0.26530333  0.04072660  0.82696618    -0.03900
C311        C  0.28307772  0.01779606  0.84753763    -0.01100
C312        C  0.27073494  0.98957906  0.84734591     0.03900
C313        C  0.19230533  0.00113869  0.78189060     0.38600
C314        C  0.31416091  0.02326924  0.86915897     0.38600
C315        C  0.28877421  0.96650492  0.87078968     0.37000
C316        C  0.21685591  0.05857477  0.78440483     0.37000
N317        N  0.30303791  0.94824239  0.89012555    -0.37800
N318        N  0.20201495  0.07748325  0.76874953    -0.37800
N319        N  0.33891911  0.02764013  0.88643263    -0.37300
N320        N  0.16744789  0.99680177  0.76499919    -0.37300
C321        C  0.20110917  0.86069759  0.64052763    -0.03900
C322        C  0.17696751  0.86066578  0.67835016    -0.01100
C323        C  0.18063864  0.87643831  0.72545257     0.03900
C324        C  0.20904384  0.89149470  0.73614550    -0.03900
C325        C  0.23350162  0.89075880  0.69865288    -0.01100
C326        C  0.22917133  0.87619911  0.65058077     0.03900
C327        C  0.14780359  0.84528563  0.66789150     0.38600
C328        C  0.26371923  0.90409369  0.71011851     0.38600
C329        C  0.25405974  0.87663479  0.61184185     0.37000
C330        C  0.15471516  0.87785454  0.76204976     0.37000
N331        N  0.27376634  0.87710852  0.58073420    -0.37800
N332        N  0.13405750  0.87896492  0.79129355    -0.37800
N333        N  0.28783340  0.91468254  0.71923105    -0.37300
N334        N  0.12455610  0.83301107  0.65945983    -0.37300
C335        C  0.19958595  0.88237024  0.24209503    -0.03900
C336        C  0.17678881  0.89010599  0.27952020    -0.01100
C337        C  0.17523299  0.87573652  0.32828937     0.03900
C338        C  0.19544366  0.85246281  0.33921028    -0.03900
C339        C  0.21686265  0.84353490  0.30026127    -0.01100
C340        C  0.21949262  0.85892104  0.25260884     0.03900
C341        C  0.15496519  0.91306513  0.26793426     0.38600
C342        C  0.23748030  0.81943400  0.30998901     0.38600
C343        C  0.24423984  0.85187585  0.21601306     0.37000
C344        C  0.15275646  0.88506082  0.36722019     0.37000
N345        N  0.26418319  0.84646768  0.18708500    -0.37800
N346        N  0.13505527  0.89265562  0.39848368    -0.37800
N347        N  0.25384115  0.80009955  0.31734561    -0.37300
N348        N  0.13745980  0.93129563  0.25875645    -0.37300
C349        C  0.45041825  0.66317529  0.65840004    -0.03900
C350        C  0.97354423  0.67202446  0.69531730    -0.01100
C351        C  0.97805404  0.65629547  0.74228439     0.03900
C352        C  0.45928502  0.63181906  0.75320032    -0.03900
C353        C  0.43525252  0.62377010  0.71759389    -0.01100
C354        C  0.43082516  0.63932101  0.67053007     0.03900
C355        C  0.99380603  0.69651822  0.68408441     0.38600
C356        C  0.41501147  0.59933864  0.72952471     0.38600
C357        C  0.40553186  0.63106173  0.63516157     0.37000
C358        C  0.00307028  0.66446946  0.77823651     0.37000
N359        N  0.38530282  0.62451549  0.60702916    -0.37800
N360        N  0.02306546  0.67089739  0.80691013    -0.37800
N361        N  0.39901922  0.57979511  0.73925886    -0.37300
N362        N  0.00994171  0.71608894  0.67519689    -0.37300
C363        C  0.95210101  0.63046767  0.25718221    -0.03900
C364        C  0.96971569  0.65593724  0.26624148    -0.01100
C365        C  0.96605052  0.67149813  0.31343591     0.03900
C366        C  0.94545026  0.66127441  0.35293808    -0.03900
C367        C  0.92727134  0.63619675  0.34324184    -0.01100
C368        C  0.92998429  0.62139226  0.29513421     0.03900
C369        C  0.99273805  0.66553187  0.22811411     0.38600
C370        C  0.40545539  0.62557990  0.38249190     0.38600
C371        C  0.90926538  0.59718278  0.28418048     0.37000
C372        C  0.98490409  0.69722953  0.32235512     0.37000
N373        N  0.39227194  0.57817215  0.27570795    -0.37800
N374        N  0.99987881  0.71777385  0.32955034    -0.37800
N375        N  0.38815422  0.61684316  0.41370319    -0.37300
N376        N  0.01113364  0.67327045  0.19781755    -0.37300
C377        C  0.03803311  0.74700616  0.49682049    -0.03900
C378        C  0.06355545  0.73312524  0.52198661    -0.01100
C379        C  0.09416484  0.74522689  0.52056559     0.03900
C380        C  0.10001002  0.77150250  0.49407489    -0.03900
C381        C  0.07473253  0.78504222  0.46773172    -0.01100
C382        C  0.04404138  0.77295101  0.46918418     0.03900
C383        C  0.05850117  0.70651210  0.55073876     0.38600
C384        C  0.08046113  0.81072727  0.43658470     0.38600
C385        C  0.01904543  0.78668862  0.43986109     0.37000
C386        C  0.11953632  0.73067611  0.54762293     0.37000
N387        N  0.99932862  0.79775313  0.41611511    -0.37800
N388        N  0.13978473  0.71898709  0.56896524    -0.37800
N389        N  0.08501974  0.83108620  0.41144095    -0.37300
N390        N  0.05468339  0.68521858  0.57352164    -0.37300
C391        C  0.28738351  0.76879538  0.49991710    -0.03900
C392        C  0.31208726  0.78037208  0.46901336    -0.01100
C393        C  0.34260680  0.76870707  0.47160593     0.03900
C394        C  0.34898610  0.74484606  0.50430337    -0.03900
C395        C  0.32415802  0.73275232  0.53426022    -0.01100
C396        C  0.29370676  0.74480824  0.53250436     0.03900
C397        C  0.30607525  0.80383066  0.43281140     0.38600
C398        C  0.33002010  0.70833142  0.56834245     0.38600
C399        C  0.26930528  0.73313108  0.56613712     0.37000
C400        C  0.36718193  0.78074042  0.43870445     0.37000
N401        N  0.24996475  0.72382072  0.59321800    -0.37800
N402        N  0.38672752  0.79037519  0.41242218    -0.37800
N403        N  0.33459379  0.68880303  0.59544038    -0.37300
N404        N  0.30143136  0.82253918  0.40389613    -0.37300
O405        O  0.94366098  0.66401350  0.56425761    -0.56400
C406        C  0.44366483  0.67637431  0.40454900     0.76200
O407        O  0.90606865  0.74738540  0.50547918    -0.57600
C408        C  0.94754332  0.67797493  0.60646225     0.76200
C409        C  0.50556261  0.73392267  0.49868752     0.78600
Cd410      Cd  0.94356076  0.70618234  0.50459873     1.37500
O411        O  0.44319715  0.66281241  0.44768526    -0.56400
O412        O  0.50134261  0.70696209  0.49925094    -0.55200
C413        C  0.88122654  0.73209061  0.50568685     0.78500
O414        O  0.48074062  0.74879720  0.50033083    -0.57600
O415        O  0.44320677  0.70353315  0.40775780    -0.56100
O416        O  0.94921889  0.70506734  0.60182498    -0.56000
O417        O  0.88529097  0.70519104  0.50620776    -0.55200
O418        O  0.69275129  0.85270085  0.43370642    -0.56400
C419        C  0.69758897  0.84408818  0.59094381     0.76200
O420        O  0.65710017  0.76994840  0.49339090    -0.57600
C421        C  0.69497474  0.83830406  0.39180406     0.76200
C422        C  0.75553247  0.78244055  0.49886362     0.78600
Cd423      Cd  0.69474076  0.81132274  0.49443241     1.37500
O424        O  0.70236379  0.85557924  0.54663333    -0.56400
O425        O  0.75254618  0.80934215  0.49428519    -0.55200
C426        C  0.63230905  0.78483227  0.49421078     0.78500
O427        O  0.73006706  0.76817957  0.50214550    -0.57600
O428        O  0.69056057  0.81756339  0.59084914    -0.56100
O429        O  0.69702295  0.81132554  0.39724943    -0.56000
O430        O  0.63649557  0.81180541  0.49552171    -0.55200
C431        C  0.71297196  0.90876233  0.78545162     0.04500
C432        C  0.70868159  0.89610367  0.83535087    -0.11600
C433        C  0.71268520  0.91269644  0.88094228     0.02000
C434        C  0.72186326  0.94157119  0.87681174    -0.10200
C435        C  0.72734131  0.95417606  0.82790612     0.04500
C436        C  0.72193315  0.93801062  0.78231588    -0.09600
H437        H  0.70235763  0.87354049  0.83873860     0.10100
H438        H  0.72550773  0.95417346  0.91214083     0.07600
H439        H  0.72558592  0.94800000  0.74439089     0.07500
C440        C  0.79610186  0.11634302  0.79765798     0.04500
C441        C  0.78431994  0.08818915  0.79041586    -0.11600
C442        C  0.77679287  0.07084709  0.83361509     0.02000
C443        C  0.78043451  0.08193704  0.88417593    -0.10200
C444        C  0.79222122  0.10978234  0.89225966     0.04500
C445        C  0.80028388  0.12702628  0.84902670    -0.09600
H446        H  0.78104034  0.07976491  0.75113987     0.10100
H447        H  0.77430910  0.06864932  0.91769214     0.07600
H448        H  0.80962986  0.14852289  0.85527957     0.07500
C449        C  0.45872278  0.61188249  0.21066114     0.04500
C450        C  0.45515821  0.62215061  0.15879671    -0.11600
C451        C  0.46251946  0.60436709  0.11605452     0.02000
C452        C  0.47313088  0.57638548  0.12530444    -0.10200
C453        C  0.47676620  0.56591200  0.17640328     0.04500
C454        C  0.46960065  0.58368999  0.21894302    -0.09600
H455        H  0.44674996  0.64374710  0.15178041     0.10100
H456        H  0.47877470  0.56265798  0.09235692     0.07600
H457        H  0.47294657  0.57574056  0.25852852     0.07500
C458        C  0.03623746  0.40183950  0.20715042     0.04500
C459        C  0.52618427  0.43014140  0.21601317    -0.11600
C460        C  0.52043326  0.44867946  0.17383211     0.02000
C461        C  0.52432171  0.43866744  0.12252244    -0.10200
C462        C  0.03419727  0.41047758  0.11294097     0.04500
C463        C  0.04024642  0.39201493  0.15537842    -0.09600
H464        H  0.52321544  0.43782495  0.25578448     0.10100
H465        H  0.51973892  0.45295491  0.08976818     0.07600
H466        H  0.04812422  0.37027572  0.14822057     0.07500
C467        C  0.70518391  0.90100616  0.19528468     0.04500
C468        C  0.71564718  0.92943964  0.20330025    -0.11600
C469        C  0.72264867  0.94723447  0.16064784     0.02000
C470        C  0.71926512  0.93670570  0.10966902    -0.10200
C471        C  0.70882477  0.90847060  0.10068587     0.04500
C472        C  0.70171589  0.89049564  0.14358698    -0.09600
H473        H  0.71881179  0.93758738  0.24280235     0.10100
H474        H  0.72486631  0.95057566  0.07669320     0.07600
H475        H  0.69379483  0.86857755  0.13688040     0.07500
C476        C  0.78527449  0.10953082  0.20623979     0.04500
C477        C  0.77284498  0.08153308  0.21100203    -0.11600
C478        C  0.76738626  0.06470964  0.16636421     0.02000
C479        C  0.77407865  0.07598175  0.11670530    -0.10200
C480        C  0.78624789  0.10394639  0.11122024     0.04500
C481        C  0.79187781  0.12076360  0.15607320    -0.09600
H482        H  0.76775001  0.07274381  0.24945922     0.10100
H483        H  0.76992929  0.06287821  0.08214726     0.07600
H484        H  0.80140454  0.14235289  0.15201623     0.07500
O485        O  0.56210137  0.35217440  0.56058897    -0.56400
C486        C  0.05473353  0.33764629  0.39984456     0.76200
O487        O  0.59582881  0.26816821  0.50324067    -0.57600
C488        C  0.55863396  0.33830920  0.60303752     0.76200
C489        C  0.99700915  0.28195344  0.49883892     0.78600
Cd490      Cd  0.55881998  0.30965526  0.50110881     1.37500
O491        O  0.55793904  0.35187724  0.44195502    -0.56400
O492        O  0.00081055  0.30897760  0.49957770    -0.55200
C493        C  0.62075434  0.28306708  0.49825017     0.78500
O494        O  0.02203666  0.26734707  0.50005411    -0.57600
O495        O  0.05392418  0.31055325  0.40447051    -0.56100
O496        O  0.55567211  0.31130965  0.59844872    -0.56000
O497        O  0.61690354  0.30990114  0.49397174    -0.55200
O498        O  0.80807714  0.16287633  0.55881497    -0.56400
C499        C  0.80335514  0.17344105  0.40032933     0.76200
O500        O  0.77142067  0.24640574  0.49182526    -0.57600
C501        C  0.80966361  0.17756861  0.60056563     0.76200
C502        C  0.87069749  0.23057669  0.49498806     0.78600
Cd503      Cd  0.80805676  0.20447744  0.49840664     1.37500
O504        O  0.80604134  0.16044025  0.44379123    -0.56400
O505        O  0.86600229  0.20379398  0.49044079    -0.55200
C506        C  0.74638908  0.23201801  0.49966469     0.78500
O507        O  0.84629424  0.24575121  0.49999888    -0.57600
O508        O  0.80349072  0.20065042  0.40230578    -0.56100
O509        O  0.81101024  0.20460348  0.59494221    -0.56000
O510        O  0.75011225  0.20538398  0.50730099    -0.55200
C511        C  0.96610943  0.61328277  0.79970663     0.04500
C512        C  0.96100202  0.62302429  0.85135519    -0.11600
C513        C  0.96662310  0.60462417  0.89419285     0.02000
C514        C  0.97733991  0.57666074  0.88514505    -0.10200
C515        C  0.98260741  0.56685761  0.83412688     0.04500
C516        C  0.97718278  0.58523264  0.79157527    -0.09600
H517        H  0.95238250  0.64456068  0.85808065     0.10100
H518        H  0.98150514  0.56238465  0.91807744     0.07600
H519        H  0.98115466  0.57757691  0.75204840     0.07500
C520        C  0.54450515  0.40380763  0.79638815     0.04500
C521        C  0.53415177  0.43213666  0.78782524    -0.11600
C522        C  0.52684364  0.44995806  0.83025112     0.02000
C523        C  0.52998819  0.43956578  0.88139605    -0.10200
C524        C  0.54007714  0.41148766  0.89099832     0.04500
C525        C  0.54749500  0.39353537  0.84841773    -0.09600
H526        H  0.53121618  0.44011194  0.74816894     0.10100
H527        H  0.52399987  0.45333618  0.91411376     0.07600
H528        H  0.55503194  0.37168340  0.85562585     0.07500
C529        C  0.99321283  0.53684806  0.82585351    -0.03900
C530        C  0.97198717  0.51369215  0.83323681    -0.01100
C531        C  0.98265588  0.48511176  0.83076942     0.03900
C532        C  0.01476771  0.47953035  0.82239507    -0.03900
C533        C  0.53575836  0.50262343  0.81291093    -0.01100
C534        C  0.52491652  0.53122973  0.81402249     0.03900
C535        C  0.93925290  0.51934421  0.84439141     0.38600
C536        C  0.56876929  0.49699667  0.80447973     0.38600
C537        C  0.54660523  0.55495950  0.80510362     0.37000
C538        C  0.96066046  0.46137453  0.83742553     0.37000
N539        N  0.56382570  0.57394682  0.79783521    -0.37800
N540        N  0.94304273  0.44246235  0.84233856    -0.37800
N541        N  0.59514460  0.49254213  0.79797698    -0.37300
N542        N  0.91318163  0.52390847  0.85349078    -0.37300
C543        C  0.55734005  0.35306757  0.65522278    -0.03900
C544        C  0.03469646  0.34471301  0.69301537    -0.01100
C545        C  0.03120396  0.36067489  0.73985572     0.03900
C546        C  0.55063505  0.38488158  0.75005298    -0.03900
C547        C  0.57438113  0.39227025  0.71368001    -0.01100
C548        C  0.57784854  0.37637931  0.66678615     0.03900
C549        C  0.01393845  0.32038241  0.68295402     0.38600
C550        C  0.59528975  0.41639787  0.72441030     0.38600
C551        C  0.60329491  0.38351108  0.63126668     0.37000
C552        C  0.00631060  0.35312618  0.77616721     0.37000
N553        N  0.62377562  0.38908917  0.60323249    -0.37800
N554        N  0.98637838  0.34717316  0.80503217    -0.37800
N555        N  0.61193592  0.43569355  0.73275783    -0.37300
N556        N  0.99746854  0.30090039  0.67502458    -0.37300
C557        C  0.65286505  0.26995909  0.49824020    -0.03900
C558        C  0.65988355  0.24673548  0.53211970    -0.01100
C559        C  0.69019199  0.23445316  0.53264229     0.03900
C560        C  0.71429828  0.24537365  0.49962531    -0.03900
C561        C  0.70730180  0.26880382  0.46603357    -0.01100
C562        C  0.67694787  0.28104526  0.46550212     0.03900
C563        C  0.63637403  0.23636791  0.56882547     0.38600
C564        C  0.73095798  0.27983213  0.43027234     0.38600
C565        C  0.67049136  0.30478126  0.43012485     0.37000
C566        C  0.69659389  0.21107241  0.56880627     0.37000
N567        N  0.66548073  0.32378357  0.40202119    -0.37800
N568        N  0.70148965  0.19239593  0.59768168    -0.37800
N569        N  0.74978372  0.28862732  0.40167393    -0.37300
N570        N  0.61762468  0.22832471  0.59826839    -0.37300
C571        C  0.90317718  0.24334248  0.49489278    -0.03900
C572        C  0.92798056  0.22971415  0.52223058    -0.01100
C573        C  0.95855232  0.24199967  0.52288205     0.03900
C574        C  0.96483154  0.26835037  0.49675264    -0.03900
C575        C  0.93995588  0.28187044  0.46916950    -0.01100
C576        C  0.90957348  0.26924723  0.46769509     0.03900
C577        C  0.92192521  0.20349738  0.55166277     0.38600
C578        C  0.94543878  0.30865993  0.44121453     0.38600
C579        C  0.88519209  0.28238974  0.43603558     0.37000
C580        C  0.98318466  0.22795959  0.55260773     0.37000
N581        N  0.86584095  0.29275271  0.41044402    -0.37800
N582        N  0.00284552  0.21678832  0.57631409    -0.37800
N583        N  0.94951141  0.33014249  0.41914477    -0.37300
N584        N  0.91717931  0.18262404  0.57525921    -0.37300
C585        C  0.79122346  0.12686899  0.25443755    -0.03900
C586        C  0.81389909  0.11792740  0.29149152    -0.01100
C587        C  0.81790423  0.13304557  0.33912240     0.03900
C588        C  0.79969232  0.15766594  0.34970554    -0.03900
C589        C  0.77745601  0.16691994  0.31195970    -0.01100
C590        C  0.77304089  0.15140615  0.26487523     0.03900
C591        C  0.83336763  0.09324066  0.28028546     0.38600
C592        C  0.75793739  0.19166336  0.32244185     0.38600
C593        C  0.74867670  0.15992788  0.22823958     0.37000
C594        C  0.84126627  0.12347874  0.37670390     0.37000
N595        N  0.72910727  0.16665896  0.19923218    -0.37800
N596        N  0.85984582  0.11577874  0.40671708    -0.37800
N597        N  0.74238903  0.21140322  0.33080136    -0.37300
N598        N  0.84883841  0.07355130  0.27117753    -0.37300
C599        C  0.73423697  0.97704914  0.16871885    -0.03900
C600        C  0.71276984  0.99968259  0.17502751    -0.01100
C601        C  0.72367774  0.02843183  0.17667604     0.03900
C602        C  0.75602948  0.03456030  0.17117384    -0.03900
C603        C  0.77758355  0.01179957  0.16732670    -0.01100
C604        C  0.76671338  0.98307570  0.16646768     0.03900
C605        C  0.67943049  0.99331972  0.17840630     0.38600
C606        C  0.81093983  0.01806460  0.16386260     0.38600
C607        C  0.78883710  0.95963583  0.16298087     0.37000
C608        C  0.70160829  0.05170683  0.18299811     0.37000
N609        N  0.80634738  0.94081183  0.16052434    -0.37800
N610        N  0.68394425  0.07022068  0.18834756    -0.37800
N611        N  0.83751192  0.02324755  0.16117319    -0.37300
N612        N  0.65286933  0.98806688  0.18101981    -0.37300
C613        C  0.54083366  0.40161369  0.94661628    -0.03900
C614        C  0.56856528  0.40483348  0.97675952    -0.01100
C615        C  0.56705374  0.40462246  0.03218703     0.03900
C616        C  0.53784144  0.40124469  0.05747702    -0.03900
C617        C  0.01085979  0.39463744  0.02746064    -0.01100
C618        C  0.01224268  0.39514315  0.97218780     0.03900
C619        C  0.59818951  0.41048787  0.95078435     0.38600
C620        C  0.98135491  0.38870309  0.05371488     0.38600
C621        C  0.98374385  0.39118053  0.94162586     0.37000
C622        C  0.59515042  0.40949697  0.06336846     0.37000
N623        N  0.96093315  0.38817962  0.91735466    -0.37800
N624        N  0.61743828  0.41321786  0.08868158    -0.37800
N625        N  0.95793256  0.38379009  0.07490049    -0.37300
N626        N  0.62184046  0.41500573  0.93002791    -0.37300
C627        C  0.04314672  0.38306969  0.25304898    -0.03900
C628        C  0.56806396  0.39037858  0.28738133    -0.01100
C629        C  0.57231470  0.37507952  0.33465436     0.03900
C630        C  0.05185003  0.35208527  0.34785107    -0.03900
C631        C  0.02817904  0.34353890  0.31170104    -0.01100
C632        C  0.02366202  0.35918727  0.26473129     0.03900
C633        C  0.58947418  0.41366111  0.27371561     0.38600
C634        C  0.00766301  0.31928813  0.32338901     0.38600
C635        C  0.99812570  0.35145921  0.22944422     0.37000
C636        C  0.59837379  0.38253930  0.36902243     0.37000
N637        N  0.97776534  0.34535154  0.20125290    -0.37800
N638        N  0.61923189  0.38839025  0.39635531    -0.37800
N639        N  0.99135368  0.29983118  0.33221980    -0.37300
N640        N  0.60644180  0.43223394  0.26242929    -0.37300
C641        C  0.45920475  0.61380964  0.06047572    -0.03900
C642        C  0.93282580  0.60449717  0.03119444    -0.01100
C643        C  0.93402914  0.60393493  0.97586327     0.03500
C644        C  0.96130613  0.61349894  0.94952241    -0.03900
C645        C  0.48606063  0.62620203  0.97862713    -0.01100
C646        C  0.48514981  0.62612261  0.03406284     0.03900
C647        C  0.90517602  0.59391904  0.05833466     0.38600
C648        C  0.51341796  0.63745901  0.95154867     0.38600
C649        C  0.51180373  0.63689756  0.06390462     0.37000
C650        C  0.90812175  0.59162390  0.94610180     0.37000
N651        N  0.53316716  0.64552665  0.08748545    -0.37800
N652        N  0.88753216  0.58168043  0.92230069    -0.37800
N653        N  0.53521358  0.64648383  0.92988290    -0.37300
N654        N  0.88312061  0.58566768  0.08026213    -0.37300
C655        C  0.48925916  0.53640870  0.18428305    -0.03900
C656        C  0.52052712  0.53044095  0.17004106    -0.01100
C657        C  0.53109325  0.50180966  0.16860477     0.03900
C658        C  0.51069660  0.47895032  0.18260203    -0.03900
C659        C  0.98025303  0.48507811  0.20095113    -0.01100
C660        C  0.96938870  0.51370080  0.20104397     0.03900
C661        C  0.54168942  0.55384282  0.15603746     0.38600
C662        C  0.95960065  0.46178913  0.21743091     0.38600
C663        C  0.93714486  0.51941120  0.21519965     0.37000
C664        C  0.56286238  0.49578614  0.15185457     0.37000
N665        N  0.91123888  0.52345512  0.22615403    -0.37800
N666        N  0.58814794  0.49092341  0.13828273    -0.37800
N667        N  0.94320023  0.44321303  0.23082422    -0.37300
N668        N  0.55849169  0.57258552  0.14499518    -0.37300
C669        C  0.79611395  0.11942585  0.94734448    -0.03900
C670        C  0.77016023  0.13088584  0.97405697    -0.01100
C671        C  0.76841876  0.12873524  0.02920174     0.03900
C672        C  0.79251997  0.11489612  0.05746806    -0.03900
C673        C  0.82020935  0.10684802  0.03126113    -0.01100
C674        C  0.82218577  0.10961980  0.97627110     0.03900
C675        C  0.74435427  0.14302614  0.94442721     0.38600
C676        C  0.84569377  0.09381475  0.06037116     0.38600
C677        C  0.85020714  0.10071978  0.94883293     0.37000
C678        C  0.74083649  0.13877433  0.05649442     0.37000
N679        N  0.87260198  0.09392100  0.92670507    -0.37800
N680        N  0.71884636  0.14681383  0.07832719    -0.37800
N681        N  0.86605105  0.08331155  0.08342847    -0.37300
N682        N  0.72378812  0.15281360  0.92082733    -0.37300
C683        C  0.80312047  0.13442517  0.75060441    -0.03900
C684        C  0.82429237  0.12453656  0.71219045    -0.01100
C685        C  0.82672734  0.13872683  0.66336753     0.03900
C686        C  0.80911613  0.16379668  0.65336158    -0.03900
C687        C  0.78996774  0.17506083  0.69351106    -0.01100
C688        C  0.78659391  0.16019889  0.74153185     0.03900
C689        C  0.84391811  0.09987810  0.72320342     0.38600
C690        C  0.77224364  0.20114293  0.68457860     0.38600
C691        C  0.76484203  0.17080474  0.78045405     0.37000
C692        C  0.84754328  0.12749581  0.62357318     0.37000
N693        N  0.74748773  0.17942404  0.81134283    -0.37800
N694        N  0.86401671  0.11840580  0.59178005    -0.37800
N695        N  0.75818654  0.22198736  0.67753509    -0.37300
N696        N  0.85968969  0.08032355  0.73213480    -0.37300
C697        C  0.70791866  0.90090123  0.93450143    -0.03900
C698        C  0.73394170  0.89066530  0.96316748    -0.01100
C699        C  0.73275993  0.88932209  0.01847579     0.03900
C700        C  0.70585480  0.89892454  0.04522424    -0.03900
C701        C  0.67879448  0.90635226  0.01622164    -0.01100
C702        C  0.67971104  0.90692271  0.96090599     0.03900
C703        C  0.76287754  0.88421423  0.93600915     0.38600
C704        C  0.65105029  0.91615896  0.04337746     0.38600
C705        C  0.65256901  0.91629053  0.93112627     0.37000
C706        C  0.76017011  0.88049136  0.04807541     0.37000
N707        N  0.63104678  0.92379100  0.90706668    -0.37800
N708        N  0.78207900  0.87342096  0.07159075    -0.37800
N709        N  0.62899656  0.92423822  0.06498701    -0.37300
N710        N  0.78598077  0.87928619  0.91421073    -0.37300
C711        C  0.74077555  0.98384882  0.82532086    -0.03900
C712        C  0.72341114  0.00662888  0.80318666    -0.01100
C713        C  0.73557915  0.03501486  0.80425973     0.03900
C714        C  0.76530407  0.04072597  0.82696575    -0.03900
C715        C  0.78307852  0.01779537  0.84753682    -0.01100
C716        C  0.77073560  0.98957841  0.84734520     0.03900
C717        C  0.69230575  0.00113830  0.78189065     0.38600
C718        C  0.81416183  0.02326848  0.86915776     0.38600
C719        C  0.78877487  0.96650418  0.87078875     0.37000
C720        C  0.71685660  0.05857433  0.78440501     0.37000
N721        N  0.80303850  0.94824155  0.89012443    -0.37800
N722        N  0.70201569  0.07748289  0.76874993    -0.37800
N723        N  0.83892014  0.02763929  0.88643108    -0.37300
N724        N  0.66744822  0.99680136  0.76499957    -0.37300
C725        C  0.70110960  0.86069714  0.64052768    -0.03900
C726        C  0.67696766  0.86066569  0.67834973    -0.01100
C727        C  0.68063873  0.87643817  0.72545222     0.03900
C728        C  0.70904410  0.89149413  0.73614565    -0.03900
C729        C  0.73350218  0.89075779  0.69865366    -0.01100
C730        C  0.72917199  0.87619816  0.65058148     0.03900
C731        C  0.64780358  0.84528595  0.66789063     0.38600
C732        C  0.76371997  0.90409212  0.71012014     0.38600
C733        C  0.75406084  0.87663335  0.61184335     0.37000
C734        C  0.65471501  0.87785490  0.76204888     0.37000
N735        N  0.77376785  0.87710676  0.58073644    -0.37800
N736        N  0.63405719  0.87896577  0.79129229    -0.37800
N737        N  0.78783425  0.91468058  0.71923341    -0.37300
N738        N  0.62455590  0.83301168  0.65945891    -0.37300
C739        C  0.69958541  0.88237019  0.24209489    -0.03900
C740        C  0.67678844  0.89010598  0.27952028    -0.01100
C741        C  0.67523279  0.87573651  0.32828947     0.03900
C742        C  0.69544344  0.85246275  0.33921014    -0.03900
C743        C  0.71686233  0.84353487  0.30026098    -0.01100
C744        C  0.71949216  0.85892102  0.25260855     0.03900
C745        C  0.65496480  0.91306514  0.26793457     0.38600
C746        C  0.73748008  0.81943401  0.30998852     0.38600
C747        C  0.74423935  0.85187593  0.21601268     0.37000
C748        C  0.65275644  0.88506083  0.36722051     0.37000
N749        N  0.76418268  0.84646785  0.18708450    -0.37800
N750        N  0.63505543  0.89265567  0.39848429    -0.37800
N751        N  0.75384099  0.80009958  0.31734486    -0.37300
N752        N  0.63745941  0.93129565  0.25875687    -0.37300
C753        C  0.95041812  0.66317543  0.65840037    -0.03900
C754        C  0.47354448  0.67202427  0.69531682    -0.01100
C755        C  0.47805423  0.65629536  0.74228397     0.03900
C756        C  0.95928482  0.63181915  0.75320070    -0.03900
C757        C  0.93525233  0.62377022  0.71759421    -0.01100
C758        C  0.93082504  0.63932110  0.67053031     0.03900
C759        C  0.49380631  0.69651801  0.68408383     0.38600
C760        C  0.91501127  0.59933876  0.72952504     0.38600
C761        C  0.90553189  0.63106170  0.63516163     0.37000
C762        C  0.50307052  0.66446933  0.77823602     0.37000
N763        N  0.88530300  0.62451528  0.60702902    -0.37800
N764        N  0.52306580  0.67089719  0.80690949    -0.37800
N765        N  0.89901911  0.57979519  0.73925923    -0.37300
N766        N  0.50994192  0.71608881  0.67519637    -0.37300
C767        C  0.45210096  0.63046746  0.25718201    -0.03900
C768        C  0.46971533  0.65593725  0.26624100    -0.01100
C769        C  0.46605000  0.67149823  0.31343531     0.03900
C770        C  0.44545007  0.66127429  0.35293778    -0.03900
C771        C  0.42727156  0.63619635  0.34324193    -0.01100
C772        C  0.42998452  0.62139189  0.29513430     0.03900
C773        C  0.49273745  0.66553209  0.22811344     0.38600
C774        C  0.90545498  0.62558053  0.38249167     0.38600
C775        C  0.40926583  0.59718224  0.28418087     0.37000
C776        C  0.48490313  0.69722992  0.32235417     0.37000
N777        N  0.89227133  0.57817284  0.27570720    -0.37800
N778        N  0.49987751  0.71777448  0.32954916    -0.37800
N779        N  0.88815381  0.61684400  0.41370314    -0.37300
N780        N  0.51113284  0.67327088  0.19781669    -0.37300
C781        C  0.53803319  0.74700598  0.49681999    -0.03900
C782        C  0.56355558  0.73312486  0.52198557    -0.01100
C783        C  0.59416495  0.74522653  0.52056461     0.03900
C784        C  0.60001012  0.77150232  0.49407444    -0.03900
C785        C  0.57473256  0.78504221  0.46773180    -0.01100
C786        C  0.54404142  0.77295100  0.46918419     0.03900
C787        C  0.55850139  0.70651153  0.55073720     0.38600
C788        C  0.58046106  0.81072751  0.43658540     0.38600
C789        C  0.51904546  0.78668879  0.43986150     0.37000
C790        C  0.61953642  0.73067561  0.54762166     0.37000
N791        N  0.49932864  0.79775343  0.41611574    -0.37800
N792        N  0.63978482  0.71898646  0.56896372    -0.37800
N793        N  0.58501959  0.83108663  0.41144216    -0.37300
N794        N  0.55468371  0.68521787  0.57351971    -0.37300
C795        C  0.78738375  0.76879529  0.49991667    -0.03900
C796        C  0.81208744  0.78037195  0.46901273    -0.01100
C797        C  0.84260702  0.76870702  0.47160534     0.03900
C798        C  0.84898638  0.74484612  0.50430297    -0.03900
C799        C  0.82415839  0.73275244  0.53426001    -0.01100
C800        C  0.79370714  0.74480833  0.53250422     0.03900
C801        C  0.80607538  0.80383049  0.43281074     0.38600
C802        C  0.83002061  0.70833169  0.56834250     0.38600
C803        C  0.76930581  0.73313128  0.56613737     0.37000
C804        C  0.86718217  0.78074047  0.43870396     0.37000
N805        N  0.74996551  0.72382094  0.59321871    -0.37800
N806        N  0.88672769  0.79037540  0.41242175    -0.37800
N807        N  0.83459457  0.68880347  0.59544072    -0.37300
N808        N  0.80143144  0.82253896  0.40389542    -0.37300
loop_ 
_geom_bond_atom_site_label_1 
_geom_bond_atom_site_label_2 
_geom_bond_distance 
_geom_bond_site_symmetry_2 
_ccdc_geom_bond_type 
O1            C4   1.267       .  A
O1           Cd6   2.479       .  S
C2           O11   1.265       .  A
C2            O7   1.267       .  A
C2          C366   1.495       .  S
O3            C9   1.269       .  A
O3           Cd6   2.506       .  S
C4           O12   1.266       .  A
C4          C349   1.497       .  S
C5           O10   1.270   1_455  A
C5            O8   1.264       .  A
C5          C377   1.506       .  S
Cd6          O13   2.483       .  S
Cd6          O12   2.490       .  S
Cd6         O415   2.472       .  S
Cd6         O411   2.485       .  S
Cd6         O414   2.526       .  S
Cd6         O412   2.466       .  S
O7         Cd410   2.485       .  S
O8         Cd410   2.466   1_455  S
C9           O13   1.264       .  A
C9          C394   1.501       .  S
O10        Cd410   2.526       .  S
O11        Cd410   2.472       .  S
O14          C17   1.266       .  A
O14         Cd19   2.469       .  S
C15          O24   1.266       .  A
C15          O20   1.265       .  A
C15         C321   1.488       .  S
O16          C22   1.268       .  A
O16         Cd19   2.492       .  S
C17          O25   1.265       .  A
C17         C338   1.493       .  S
C18          O23   1.269       .  A
C18          O21   1.263       .  A
C18         C391   1.503       .  S
Cd19         O26   2.482       .  S
Cd19         O25   2.480       .  S
Cd19         O24   2.483       .  S
Cd19         O20   2.469       .  S
Cd19         O23   2.526       .  S
Cd19         O21   2.465       .  S
C22          O26   1.265       .  A
C22         C380   1.503       .  S
C27         C324   1.500       .  S
C27          C28   1.413       .  A
C27          C32   1.411       .  A
C28          C29   1.405       .  A
C28          H33   1.084       .  S
C29         C293   1.485       .  S
C29          C30   1.398       .  A
C30          C31   1.397       .  A
C30          H34   1.085       .  S
C31         C307   1.489       .  S
C31          C32   1.402       .  A
C32          H35   1.083       .  S
C36         C279   1.494       .  S
C36          C37   1.409       .  A
C36          C41   1.411       .  A
C37          C38   1.400       .  A
C37          H42   1.084       .  S
C38         C310   1.488       .  S
C38          C39   1.396       .  A
C39          C40   1.399       .  A
C39          H43   1.085       .  S
C40         C265   1.483       .  S
C40          C41   1.404       .  A
C41          H44   1.084       .  S
C45         C363   1.498       .  S
C45          C46   1.413       .  A
C45          C50   1.410       .  A
C46          C47   1.407       .  A
C46          H51   1.084       .  S
C47         C237   1.489       .  S
C47          C48   1.401       .  A
C48          C49   1.399       .  A
C48          H52   1.085       .  S
C49         C251   1.489       .  S
C49          C50   1.401       .  A
C50          H53   1.084       .  S
C54         C223   1.489       .  S
C54          C59   1.409       .  A
C54         C459   1.406       .  A
C55          C56   1.399       .  A
C55         C458   1.406       .  A
C55          H60   1.084       .  S
C56         C254   1.488       .  S
C56          C57   1.400       .  A
C57         C462   1.402       .  A
C57          H61   1.085       .  S
C58         C616   1.488       .  S
C58          C59   1.405       .  A
C58         C461   1.402       .  A
C59          H62   1.084       .  S
C63         C335   1.492       .  S
C63          C64   1.405       .  A
C63          C68   1.413       .  A
C64          C65   1.397       .  A
C64          H69   1.084       .  S
C65         C195   1.481       .  S
C65          C66   1.396       .  A
C66          C67   1.400       .  A
C66          H70   1.085       .  S
C67         C296   1.487       .  S
C67          C68   1.408       .  A
C68          H71   1.084       .  S
C72         C181   1.490       .  S
C72          C73   1.405       .  A
C72          C77   1.409       .  A
C73          C74   1.399       .  A
C73          H78   1.084       .  S
C74         C198   1.483       .  S
C74          C75   1.399       .  A
C75          C76   1.402       .  A
C75          H79   1.085       .  S
C76         C268   1.486       .  S
C76          C77   1.404       .  A
C77          H80   1.084       .  S
O81          C84   1.267       .  A
O81         Cd86   2.495       .  S
C82          O91   1.265       .  A
C82         O491   1.268       .  A
C82         C226   1.490       .  S
O83          C89   1.269       .  A
O83         Cd86   2.503       .  S
C84          O92   1.266       .  A
C84         C139   1.499       .  S
C85          O90   1.270       .  A
C85          O88   1.265       .  A
C85         C170   1.505       .  S
Cd86         O93   2.482       .  S
Cd86         O92   2.487       .  S
Cd86         O87   2.474       .  S
Cd86        O495   2.472       .  S
Cd86        O494   2.502       .  S
Cd86        O492   2.471       .  S
O87         C486   1.268       .  A
O88        Cd490   2.471       .  S
C89          O93   1.264       .  A
C89         C153   1.503       .  S
O90        Cd490   2.502       .  S
O91        Cd490   2.472       .  S
O94          C97   1.267       .  A
O94         Cd99   2.471       .  S
C95         O104   1.266       .  A
C95         O100   1.267       .  A
C95         C184   1.492       .  S
O96         C102   1.269       .  A
O96         Cd99   2.514       .  S
C97         O105   1.265       .  A
C97         C282   1.490       .  S
C98         O103   1.269       .  A
C98         O101   1.264       .  A
C98         C167   1.500       .  S
Cd99        O106   2.480       .  S
Cd99        O105   2.464       .  S
Cd99        O104   2.464       .  S
Cd99        O100   2.478       .  S
Cd99        O103   2.505       .  S
Cd99        O101   2.478       .  S
C102        O106   1.264       .  A
C102        C156   1.507       .  S
C107        C352   1.494       .  S
C107        C108   1.412       .  A
C107        C112   1.407       .  A
C108        C109   1.408       .  A
C108        H113   1.084       .  S
C109        C240   1.489       .  S
C109        C110   1.402       .  A
C110        C111   1.399       .  A
C110        H114   1.085       .  S
C111        C125   1.486       .  S
C111        C112   1.400       .  A
C112        H115   1.084       .  S
C116        C142   1.499       .  S
C116        C117   1.409       .  A
C116        C121   1.415       .  A
C117        C118   1.401       .  A
C117        H122   1.084       .  S
C118        C532   1.485       .  S
C118        C119   1.396       .  A
C119        C120   1.399       .  A
C119        H123   1.085       .  S
C120        C209   1.490       .  S
C120        C121   1.409       .  A
C121        H124   1.083       .  S
C125        C126   1.412       .  A
C125        C534   1.412       .  A
C126        C127   1.410       .  A
C126        C131   1.451       .  S
C127        C128   1.412       .  A
C127        C134   1.451       .  S
C128        C522   1.485       .  S
C128        C533   1.411       .  A
C129        C130   1.412       .  A
C129        C532   1.411       .  A
C129        C132   1.450       .  S
C130        C529   1.412   1_455  A
C130        C133   1.450       .  S
C131        N138   1.157       .  T
C132        N137   1.157       .  T
C133        N135   1.157       .  T
C134        N136   1.157       .  T
C139        C144   1.416       .  A
C139        C544   1.418       .  A
C140        C141   1.416       .  A
C140        C543   1.418       .  A
C140        C145   1.451       .  S
C141        C546   1.414       .  A
C141        C148   1.451       .  S
C142        C143   1.415       .  A
C142        C545   1.414       .  A
C143        C144   1.415       .  A
C143        C146   1.451       .  S
C144        C147   1.451       .  S
C145        N152   1.157       .  T
C146        N151   1.157       .  T
C147        N149   1.157       .  T
C148        N150   1.157       .  T
C153        C154   1.415       .  A
C153        C158   1.418       .  A
C154        C155   1.417       .  A
C154        C159   1.452       .  S
C155        C156   1.420       .  A
C155        C162   1.451       .  S
C156        C157   1.418       .  A
C157        C158   1.418       .  A
C157        C160   1.451       .  S
C158        C161   1.452       .  S
C159        N166   1.157       .  T
C160        N165   1.157       .  T
C161        N163   1.158       .  T
C162        N164   1.157       .  T
C167        C168   1.417       .  A
C167        C172   1.413       .  A
C168        C169   1.417       .  A
C168        C173   1.452       .  S
C169        C170   1.417       .  A
C169        C176   1.451       .  S
C170        C171   1.421       .  A
C171        C172   1.416       .  A
C171        C174   1.451       .  S
C172        C175   1.452       .  S
C173        N180   1.157       .  T
C174        N179   1.157       .  T
C175        N177   1.157       .  T
C176        N178   1.157       .  T
C181        C182   1.413       .  A
C181        C186   1.411       .  A
C182        C183   1.413       .  A
C182        C187   1.452       .  S
C183        C184   1.416       .  A
C183        C190   1.451       .  S
C184        C185   1.417       .  A
C185        C186   1.412       .  A
C185        C188   1.452       .  S
C186        C189   1.451       .  S
C187        N194   1.157       .  T
C188        N193   1.157       .  T
C189        N191   1.157       .  T
C190        N192   1.157       .  T
C195        C196   1.411       .  A
C195        C200   1.410       .  A
C196        C197   1.411   1_565  A
C196        C201   1.451       .  S
C197        C198   1.412       .  A
C197        C204   1.450       .  S
C198        C199   1.411       .  A
C199        C200   1.409   1_545  A
C199        C202   1.451       .  S
C200        C203   1.451       .  S
C201        N208   1.157       .  T
C202        N207   1.157       .  T
C203        N205   1.157       .  T
C204        N206   1.157       .  T
C209        C210   1.413       .  A
C209        C618   1.413       .  A
C210        C211   1.415   1_556  A
C210        C215   1.449       .  S
C211        C212   1.411       .  A
C211        C218   1.450       .  S
C212        C462   1.488       .  S
C212        C617   1.410       .  A
C213        C214   1.411   1_554  A
C213        C616   1.410       .  A
C213        C216   1.450       .  S
C214        C613   1.413       .  A
C214        C217   1.450       .  S
C215        N222   1.157       .  T
C216        N221   1.157       .  T
C217        N219   1.157       .  T
C218        N220   1.157       .  T
C223        C228   1.412       .  A
C223        C628   1.412       .  A
C224        C225   1.411       .  A
C224        C627   1.412       .  A
C224        C229   1.451       .  S
C225        C630   1.414       .  A
C225        C232   1.451       .  S
C226        C227   1.417       .  A
C226        C629   1.414       .  A
C227        C228   1.414       .  A
C227        C230   1.451       .  S
C228        C231   1.451       .  S
C229        N236   1.157       .  T
C230        N235   1.157       .  T
C231        N233   1.157       .  T
C232        N234   1.157       .  T
C237        C242   1.413       .  A
C237        C642   1.411       .  A
C238        C239   1.412   1_554  A
C238        C641   1.411       .  A
C238        C243   1.450       .  S
C239        C240   1.412       .  A
C239        C246   1.450       .  S
C240        C645   1.412       .  A
C241        C242   1.414   1_556  A
C241        C644   1.412       .  A
C241        C244   1.450   1_655  S
C242        C245   1.449   1_655  S
C243        N250   1.157       .  T
C244        N249   1.157       .  T
C245        N247   1.157       .  T
C246        N248   1.157       .  T
C251        C252   1.412   1_655  A
C251        C660   1.413       .  A
C252        C253   1.410       .  A
C252        C257   1.451       .  S
C253        C254   1.412       .  A
C253        C260   1.451       .  S
C254        C659   1.412   1_455  A
C255        C256   1.413       .  A
C255        C658   1.412       .  A
C255        C258   1.451       .  S
C256        C655   1.413       .  A
C256        C259   1.449       .  S
C257        N264   1.157       .  T
C258        N263   1.157       .  T
C259        N261   1.157       .  T
C260        N262   1.157       .  T
C265        C266   1.410       .  A
C265        C270   1.410       .  A
C266        C267   1.412   1_556  A
C266        C271   1.450       .  S
C267        C268   1.412       .  A
C267        C274   1.450       .  S
C268        C269   1.412       .  A
C269        C270   1.411   1_554  A
C269        C272   1.450       .  S
C270        C273   1.450       .  S
C271        N278   1.157       .  T
C272        N277   1.157       .  T
C273        N275   1.157       .  T
C274        N276   1.157       .  T
C279        C280   1.415       .  A
C279        C284   1.414       .  A
C280        C281   1.412       .  A
C280        C285   1.452       .  S
C281        C282   1.414       .  A
C281        C288   1.451       .  S
C282        C283   1.416       .  A
C283        C284   1.412       .  A
C283        C286   1.452       .  S
C284        C287   1.451       .  S
C285        N292   1.157       .  T
C286        N291   1.157       .  T
C287        N289   1.157       .  T
C288        N290   1.157       .  T
C293        C294   1.411       .  A
C293        C298   1.410       .  A
C294        C295   1.413   1_556  A
C294        C299   1.450       .  S
C295        C296   1.413       .  A
C295        C302   1.450       .  S
C296        C297   1.412       .  A
C297        C298   1.411   1_554  A
C297        C300   1.450       .  S
C298        C301   1.451       .  S
C299        N306   1.157       .  T
C300        N305   1.157       .  T
C301        N303   1.157       .  T
C302        N304   1.157       .  T
C307        C308   1.413   1_565  A
C307        C312   1.415       .  A
C308        C309   1.413       .  A
C308        C313   1.450       .  S
C309        C310   1.413       .  A
C309        C316   1.450       .  S
C310        C311   1.413       .  A
C311        C312   1.408   1_545  A
C311        C314   1.452       .  S
C312        C315   1.452       .  S
C313        N320   1.157   1_545  T
C314        N319   1.157       .  T
C315        N317   1.157       .  T
C316        N318   1.157       .  T
C321        C322   1.413       .  A
C321        C326   1.412       .  A
C322        C323   1.415       .  A
C322        C327   1.451       .  S
C323        C324   1.417       .  A
C323        C330   1.451       .  S
C324        C325   1.418       .  A
C325        C326   1.411       .  A
C325        C328   1.452       .  S
C326        C329   1.452       .  S
C327        N334   1.157       .  T
C328        N333   1.157       .  T
C329        N331   1.157       .  T
C330        N332   1.157       .  T
C335        C336   1.414       .  A
C335        C340   1.412       .  A
C336        C337   1.412       .  A
C336        C341   1.451       .  S
C337        C338   1.416       .  A
C337        C344   1.452       .  S
C338        C339   1.417       .  A
C339        C340   1.413       .  A
C339        C342   1.451       .  S
C340        C343   1.451       .  S
C341        N348   1.157       .  T
C342        N347   1.157       .  T
C343        N345   1.157       .  T
C344        N346   1.157       .  T
C349        C354   1.416       .  A
C349        C754   1.418       .  A
C350        C351   1.416       .  A
C350        C753   1.418       .  A
C350        C355   1.451       .  S
C351        C756   1.412       .  A
C351        C358   1.451   1_655  S
C352        C353   1.413       .  A
C352        C755   1.412       .  A
C353        C354   1.413       .  A
C353        C356   1.452       .  S
C354        C357   1.451       .  S
C355        N362   1.157   1_655  T
C356        N361   1.157       .  T
C357        N359   1.157       .  T
C358        N360   1.157       .  T
C363        C364   1.414       .  A
C363        C368   1.415       .  A
C364        C365   1.415       .  A
C364        C369   1.451       .  S
C365        C366   1.417       .  A
C365        C372   1.452       .  S
C366        C367   1.414       .  A
C367        C368   1.413       .  A
C367        C774   1.451       .  S
C368        C371   1.450       .  S
C369        N376   1.157   1_655  T
C370        C771   1.451       .  S
C370        N375   1.157       .  T
C371        N777   1.157       .  T
C372        N374   1.157       .  T
N373        C775   1.157       .  T
C377        C378   1.420       .  A
C377        C382   1.418       .  A
C378        C379   1.415       .  A
C378        C383   1.452       .  S
C379        C380   1.415       .  A
C379        C386   1.452       .  S
C380        C381   1.419       .  A
C381        C382   1.419       .  A
C381        C384   1.452       .  S
C382        C385   1.451       .  S
C383        N390   1.157       .  T
C384        N389   1.158       .  T
C385        N387   1.157   1_455  T
C386        N388   1.157       .  T
C391        C392   1.419       .  A
C391        C396   1.417       .  A
C392        C393   1.415       .  A
C392        C397   1.452       .  S
C393        C394   1.414       .  A
C393        C400   1.452       .  S
C394        C395   1.418       .  A
C395        C396   1.419       .  A
C395        C398   1.452       .  S
C396        C399   1.451       .  S
C397        N404   1.157       .  T
C398        N403   1.158       .  T
C399        N401   1.158       .  T
C400        N402   1.157       .  T
O405        C408   1.267       .  A
O405       Cd410   2.479       .  S
C406        O415   1.265       .  A
C406        O411   1.267       .  A
C406        C770   1.495       .  S
O407        C413   1.269       .  A
O407       Cd410   2.506       .  S
C408        O416   1.266       .  A
C408        C753   1.497       .  S
C409        O414   1.270       .  A
C409        O412   1.264       .  A
C409        C781   1.506       .  S
Cd410       O417   2.483       .  S
Cd410       O416   2.490       .  S
C413        O417   1.264       .  A
C413        C798   1.501       .  S
O418        C421   1.266       .  A
O418       Cd423   2.469       .  S
C419        O428   1.266       .  A
C419        O424   1.265       .  A
C419        C725   1.488       .  S
O420        C426   1.268       .  A
O420       Cd423   2.492       .  S
C421        O429   1.265       .  A
C421        C742   1.493       .  S
C422        O427   1.269       .  A
C422        O425   1.263       .  A
C422        C795   1.503       .  S
Cd423       O430   2.482       .  S
Cd423       O429   2.480       .  S
Cd423       O428   2.483       .  S
Cd423       O424   2.469       .  S
Cd423       O427   2.526       .  S
Cd423       O425   2.465       .  S
C426        O430   1.265       .  A
C426        C784   1.503       .  S
C431        C728   1.500       .  S
C431        C432   1.413       .  A
C431        C436   1.411       .  A
C432        C433   1.405       .  A
C432        H437   1.084       .  S
C433        C697   1.485       .  S
C433        C434   1.398       .  A
C434        C435   1.397       .  A
C434        H438   1.085       .  S
C435        C711   1.489       .  S
C435        C436   1.402       .  A
C436        H439   1.083       .  S
C440        C683   1.494       .  S
C440        C441   1.409       .  A
C440        C445   1.411       .  A
C441        C442   1.400       .  A
C441        H446   1.084       .  S
C442        C714   1.488       .  S
C442        C443   1.396       .  A
C443        C444   1.399       .  A
C443        H447   1.085       .  S
C444        C669   1.483       .  S
C444        C445   1.404       .  A
C445        H448   1.084       .  S
C449        C767   1.498       .  S
C449        C450   1.413       .  A
C449        C454   1.410       .  A
C450        C451   1.407       .  A
C450        H455   1.084       .  S
C451        C641   1.489       .  S
C451        C452   1.401       .  A
C452        C453   1.399       .  A
C452        H456   1.085       .  S
C453        C655   1.489       .  S
C453        C454   1.401       .  A
C454        H457   1.084       .  S
C458        C627   1.489       .  S
C458        C463   1.409       .  A
C459        C460   1.399       .  A
C459        H464   1.084       .  S
C460        C658   1.488       .  S
C460        C461   1.400       .  A
C461        H465   1.085       .  S
C462        C463   1.405       .  A
C463        H466   1.084       .  S
C467        C739   1.492       .  S
C467        C468   1.405       .  A
C467        C472   1.413       .  A
C468        C469   1.397       .  A
C468        H473   1.084       .  S
C469        C599   1.481       .  S
C469        C470   1.396       .  A
C470        C471   1.400       .  A
C470        H474   1.085       .  S
C471        C700   1.487       .  S
C471        C472   1.408       .  A
C472        H475   1.084       .  S
C476        C585   1.490       .  S
C476        C477   1.405       .  A
C476        C481   1.409       .  A
C477        C478   1.399       .  A
C477        H482   1.084       .  S
C478        C602   1.483       .  S
C478        C479   1.399       .  A
C479        C480   1.402       .  A
C479        H483   1.085       .  S
C480        C672   1.486       .  S
C480        C481   1.404       .  A
C481        H484   1.084       .  S
O485        C488   1.267       .  A
O485       Cd490   2.495       .  S
C486        O495   1.265       .  A
C486        C630   1.490       .  S
O487        C493   1.269       .  A
O487       Cd490   2.503       .  S
C488        O496   1.266       .  A
C488        C543   1.499       .  S
C489        O494   1.270   1_655  A
C489        O492   1.265   1_655  A
C489        C574   1.505       .  S
Cd490       O497   2.482       .  S
Cd490       O496   2.487       .  S
Cd490       O491   2.474       .  S
C493        O497   1.264       .  A
C493        C557   1.503       .  S
O498        C501   1.267       .  A
O498       Cd503   2.471       .  S
C499        O508   1.266       .  A
C499        O504   1.267       .  A
C499        C588   1.492       .  S
O500        C506   1.269       .  A
O500       Cd503   2.514       .  S
C501        O509   1.265       .  A
C501        C686   1.490       .  S
C502        O507   1.269       .  A
C502        O505   1.264       .  A
C502        C571   1.500       .  S
Cd503       O510   2.480       .  S
Cd503       O509   2.464       .  S
Cd503       O508   2.464       .  S
Cd503       O504   2.478       .  S
Cd503       O507   2.505       .  S
Cd503       O505   2.478       .  S
C506        O510   1.264       .  A
C506        C560   1.507       .  S
C511        C756   1.494       .  S
C511        C512   1.412       .  A
C511        C516   1.407       .  A
C512        C513   1.408       .  A
C512        H517   1.084       .  S
C513        C644   1.489       .  S
C513        C514   1.402       .  A
C514        C515   1.399       .  A
C514        H518   1.085       .  S
C515        C529   1.486       .  S
C515        C516   1.400       .  A
C516        H519   1.084       .  S
C520        C546   1.499       .  S
C520        C521   1.409       .  A
C520        C525   1.415       .  A
C521        C522   1.401       .  A
C521        H526   1.084       .  S
C522        C523   1.396       .  A
C523        C524   1.399       .  A
C523        H527   1.085       .  S
C524        C613   1.490       .  S
C524        C525   1.409       .  A
C525        H528   1.083       .  S
C529        C530   1.412       .  A
C530        C531   1.410       .  A
C530        C535   1.451       .  S
C531        C532   1.412   1_655  A
C531        C538   1.451       .  S
C533        C534   1.412       .  A
C533        C536   1.450       .  S
C534        C537   1.450       .  S
C535        N542   1.157       .  T
C536        N541   1.157       .  T
C537        N539   1.157       .  T
C538        N540   1.157       .  T
C543        C548   1.416       .  A
C544        C545   1.416       .  A
C544        C549   1.451       .  S
C545        C552   1.451       .  S
C546        C547   1.415       .  A
C547        C548   1.415       .  A
C547        C550   1.451       .  S
C548        C551   1.451       .  S
C549        N556   1.157   1_455  T
C550        N555   1.157       .  T
C551        N553   1.157       .  T
C552        N554   1.157   1_455  T
C557        C558   1.415       .  A
C557        C562   1.418       .  A
C558        C559   1.417       .  A
C558        C563   1.452       .  S
C559        C560   1.420       .  A
C559        C566   1.451       .  S
C560        C561   1.418       .  A
C561        C562   1.418       .  A
C561        C564   1.451       .  S
C562        C565   1.452       .  S
C563        N570   1.157       .  T
C564        N569   1.157       .  T
C565        N567   1.158       .  T
C566        N568   1.157       .  T
C571        C572   1.417       .  A
C571        C576   1.413       .  A
C572        C573   1.417       .  A
C572        C577   1.452       .  S
C573        C574   1.417       .  A
C573        C580   1.451       .  S
C574        C575   1.421       .  A
C575        C576   1.416       .  A
C575        C578   1.451       .  S
C576        C579   1.452       .  S
C577        N584   1.157       .  T
C578        N583   1.157       .  T
C579        N581   1.157       .  T
C580        N582   1.157   1_655  T
C585        C586   1.413       .  A
C585        C590   1.411       .  A
C586        C587   1.413       .  A
C586        C591   1.452       .  S
C587        C588   1.416       .  A
C587        C594   1.451       .  S
C588        C589   1.417       .  A
C589        C590   1.412       .  A
C589        C592   1.452       .  S
C590        C593   1.451       .  S
C591        N598   1.157       .  T
C592        N597   1.157       .  T
C593        N595   1.157       .  T
C594        N596   1.157       .  T
C599        C600   1.411       .  A
C599        C604   1.410       .  A
C600        C601   1.411   1_565  A
C600        C605   1.451       .  S
C601        C602   1.412       .  A
C601        C608   1.450       .  S
C602        C603   1.411       .  A
C603        C604   1.409   1_545  A
C603        C606   1.451       .  S
C604        C607   1.451       .  S
C605        N612   1.157       .  T
C606        N611   1.157       .  T
C607        N609   1.157       .  T
C608        N610   1.157       .  T
C613        C614   1.413       .  A
C614        C615   1.415   1_556  A
C614        C619   1.449       .  S
C615        C616   1.411       .  A
C615        C622   1.450       .  S
C617        C618   1.411   1_554  A
C617        C620   1.450   1_455  S
C618        C621   1.450   1_455  S
C619        N626   1.157       .  T
C620        N625   1.157       .  T
C621        N623   1.157       .  T
C622        N624   1.157       .  T
C627        C632   1.412       .  A
C628        C629   1.411       .  A
C628        C633   1.451       .  S
C629        C636   1.451       .  S
C630        C631   1.417       .  A
C631        C632   1.414       .  A
C631        C634   1.451       .  S
C632        C635   1.451   1_455  S
C633        N640   1.157       .  T
C634        N639   1.157   1_455  T
C635        N637   1.157       .  T
C636        N638   1.157       .  T
C641        C646   1.413       .  A
C642        C643   1.412   1_554  A
C642        C647   1.450       .  S
C643        C644   1.412       .  A
C643        C650   1.450       .  S
C645        C646   1.414   1_556  A
C645        C648   1.450       .  S
C646        C649   1.449       .  S
C647        N654   1.157       .  T
C648        N653   1.157       .  T
C649        N651   1.157       .  T
C650        N652   1.157       .  T
C655        C656   1.412       .  A
C656        C657   1.410       .  A
C656        C661   1.451       .  S
C657        C658   1.412       .  A
C657        C664   1.451       .  S
C659        C660   1.413       .  A
C659        C662   1.451       .  S
C660        C663   1.449       .  S
C661        N668   1.157       .  T
C662        N667   1.157       .  T
C663        N665   1.157       .  T
C664        N666   1.157       .  T
C669        C670   1.410       .  A
C669        C674   1.410       .  A
C670        C671   1.412   1_556  A
C670        C675   1.450       .  S
C671        C672   1.412       .  A
C671        C678   1.450       .  S
C672        C673   1.412       .  A
C673        C674   1.411   1_554  A
C673        C676   1.450       .  S
C674        C677   1.450       .  S
C675        N682   1.157       .  T
C676        N681   1.157       .  T
C677        N679   1.157       .  T
C678        N680   1.157       .  T
C683        C684   1.415       .  A
C683        C688   1.414       .  A
C684        C685   1.412       .  A
C684        C689   1.452       .  S
C685        C686   1.414       .  A
C685        C692   1.451       .  S
C686        C687   1.416       .  A
C687        C688   1.412       .  A
C687        C690   1.452       .  S
C688        C691   1.451       .  S
C689        N696   1.157       .  T
C690        N695   1.157       .  T
C691        N693   1.157       .  T
C692        N694   1.157       .  T
C697        C698   1.411       .  A
C697        C702   1.410       .  A
C698        C699   1.413   1_556  A
C698        C703   1.450       .  S
C699        C700   1.413       .  A
C699        C706   1.450       .  S
C700        C701   1.412       .  A
C701        C702   1.411   1_554  A
C701        C704   1.450       .  S
C702        C705   1.451       .  S
C703        N710   1.157       .  T
C704        N709   1.157       .  T
C705        N707   1.157       .  T
C706        N708   1.157       .  T
C711        C712   1.413   1_565  A
C711        C716   1.415       .  A
C712        C713   1.413       .  A
C712        C717   1.450       .  S
C713        C714   1.413       .  A
C713        C720   1.450       .  S
C714        C715   1.413       .  A
C715        C716   1.408   1_545  A
C715        C718   1.452       .  S
C716        C719   1.452       .  S
C717        N724   1.157   1_545  T
C718        N723   1.157       .  T
C719        N721   1.157       .  T
C720        N722   1.157       .  T
C725        C726   1.413       .  A
C725        C730   1.412       .  A
C726        C727   1.415       .  A
C726        C731   1.451       .  S
C727        C728   1.417       .  A
C727        C734   1.451       .  S
C728        C729   1.418       .  A
C729        C730   1.411       .  A
C729        C732   1.452       .  S
C730        C733   1.452       .  S
C731        N738   1.157       .  T
C732        N737   1.157       .  T
C733        N735   1.157       .  T
C734        N736   1.157       .  T
C739        C740   1.414       .  A
C739        C744   1.412       .  A
C740        C741   1.412       .  A
C740        C745   1.451       .  S
C741        C742   1.416       .  A
C741        C748   1.452       .  S
C742        C743   1.417       .  A
C743        C744   1.413       .  A
C743        C746   1.451       .  S
C744        C747   1.451       .  S
C745        N752   1.157       .  T
C746        N751   1.157       .  T
C747        N749   1.157       .  T
C748        N750   1.157       .  T
C753        C758   1.416       .  A
C754        C755   1.416       .  A
C754        C759   1.451       .  S
C755        C762   1.451       .  S
C756        C757   1.413       .  A
C757        C758   1.413       .  A
C757        C760   1.452       .  S
C758        C761   1.451       .  S
C759        N766   1.157       .  T
C760        N765   1.157       .  T
C761        N763   1.157       .  T
C762        N764   1.157       .  T
C767        C768   1.414       .  A
C767        C772   1.415       .  A
C768        C769   1.415       .  A
C768        C773   1.451       .  S
C769        C770   1.417       .  A
C769        C776   1.452       .  S
C770        C771   1.414       .  A
C771        C772   1.413       .  A
C772        C775   1.450       .  S
C773        N780   1.157       .  T
C774        N779   1.157       .  T
C776        N778   1.157       .  T
C781        C782   1.420       .  A
C781        C786   1.418       .  A
C782        C783   1.415       .  A
C782        C787   1.452       .  S
C783        C784   1.415       .  A
C783        C790   1.452       .  S
C784        C785   1.419       .  A
C785        C786   1.419       .  A
C785        C788   1.452       .  S
C786        C789   1.451       .  S
C787        N794   1.157       .  T
C788        N793   1.158       .  T
C789        N791   1.157       .  T
C790        N792   1.157       .  T
C795        C796   1.419       .  A
C795        C800   1.417       .  A
C796        C797   1.415       .  A
C796        C801   1.452       .  S
C797        C798   1.414       .  A
C797        C804   1.452       .  S
C798        C799   1.418       .  A
C799        C800   1.419       .  A
C799        C802   1.452       .  S
C800        C803   1.451       .  S
C801        N808   1.157       .  T
C802        N807   1.158       .  T
C803        N805   1.158       .  T
C804        N806   1.157       .  T
