geometry optimzed in LAMMPS
_audit_creation_date              2020-11-30 
_audit_creation_method            'lammps2cif' 
_symmetry_space_group_name_H-M    'P1' 
_symmetry_Int_Tables_number       1 
_symmetry_cell_setting            triclinic 
loop_ 
_symmetry_equiv_pos_as_xyz 
  x,y,z 
_cell_length_a                    33.91964625 
_cell_length_b                    34.448416499119936 
_cell_length_c                    31.05479914498581 
_cell_angle_alpha                 89.96472700737938 
_cell_angle_beta                  88.7614103958698 
_cell_angle_gamma                 90.85951485607599 
loop_ 
_atom_site_label 
_atom_site_type_symbol 
_atom_site_fract_x 
_atom_site_fract_y 
_atom_site_fract_z 
_atom_site_charge 
C1          C  0.10722970  0.50408643  0.99952228    -0.02700
O2          O  0.36406787  0.46672754  0.19483515    -0.73200
O3          O  0.28769417  0.44635865  0.29378845    -0.74100
O4          O  0.28142907  0.45411626  0.20304877    -0.62800
O5          O  0.37144154  0.45679995  0.28405792    -0.71200
O6          O  0.35880246  0.02532338  0.29470419    -0.70700
O7          O  0.26731909  0.02397093  0.21247301    -0.62000
O8          O  0.27498835  0.01621473  0.30275871    -0.74500
O9          O  0.35012873  0.03598987  0.20598844    -0.73300
Cu10       Cu  0.32626860  0.45370623  0.24368588     1.04600
Cu11       Cu  0.31243636  0.02758133  0.25442460     1.04300
C12         C  0.36516669  0.00764743  0.18557171     0.93000
C13         C  0.26758953  0.98193786  0.31626726     0.92200
C14         C  0.25618432  0.99108548  0.19731718     0.84300
C15         C  0.37840946  0.99421959  0.30043927     0.90600
C16         C  0.03317430  0.00668014  0.99790577    -0.02700
C17         C  0.06969462  0.03858264  0.00209138    -0.02700
O18         O  0.10295535  0.21228520  0.29831155    -0.73200
O19         O  0.11395938  0.29007327  0.20199071    -0.74100
O20         O  0.11343296  0.29452657  0.29379142    -0.62800
O21         O  0.10368209  0.20891334  0.20695160    -0.71200
O22         O  0.03914378  0.21893357  0.20503972    -0.70700
O23         O  0.04840135  0.30019082  0.29695221    -0.62000
O24         O  0.04943601  0.30014352  0.20579402    -0.74500
O25         O  0.03804424  0.21845620  0.29647678    -0.73300
Cu26       Cu  0.11082371  0.25121974  0.25040654     1.04600
Cu27       Cu  0.04149964  0.25960516  0.25121929     1.04300
C28         C  0.06840839  0.20257796  0.31206869     0.93000
C29         C  0.08333254  0.30715380  0.18865888     0.92200
C30         C  0.08258862  0.31070075  0.30942410     0.84300
C31         C  0.06994154  0.20164462  0.19119106     0.90600
C32         C  0.07005308  0.47044664  0.50208503    -0.02700
C33         C  0.06744526  0.43786636  0.46618367    -0.05500
C34         C  0.03321176  0.41388967  0.46397625    -0.05400
C35         C  0.02772794  0.38709336  0.43072355    -0.23500
C36         C  0.05853300  0.37951636  0.40154840     0.18700
C37         C  0.09569875  0.39675242  0.40851857     0.15900
C38         C  0.10023828  0.42319685  0.44246760    -0.18600
C39         C  0.12810161  0.38626208  0.38249912    -0.20400
C40         C  0.12355848  0.35889573  0.34974614    -0.13000
C41         C  0.08658692  0.34138854  0.34249953     0.03700
C42         C  0.05396015  0.35225969  0.36831948    -0.25100
H43         H  0.01232271  0.41262550  0.49013934     0.08800
H44         H  0.00018059  0.37085216  0.42933077     0.12400
H45         H  0.12983733  0.42936279  0.45207027     0.12300
H46         H  0.15697644  0.39914033  0.38755042     0.12100
H47         H  0.14912572  0.35119672  0.33026811     0.12600
H48         H  0.02541621  0.33850171  0.36366618     0.14600
C49         C  0.06954184  0.44632068  0.04535712    -0.05500
C50         C  0.04897919  0.45481857  0.08467668    -0.05400
C51         C  0.04708046  0.42938818  0.11966190    -0.23500
C52         C  0.06664584  0.39429753  0.11819984     0.18700
C53         C  0.08837412  0.38453581  0.08094110     0.15900
C54         C  0.08849835  0.40937375  0.04519458    -0.18600
C55         C  0.11006053  0.35011380  0.08005512    -0.20400
C56         C  0.10961137  0.32553699  0.11588836    -0.13000
C57         C  0.08665226  0.33455685  0.15252505     0.03700
C58         C  0.06514178  0.36897223  0.15354253    -0.25100
H59         H  0.03415069  0.48095846  0.09148386     0.08800
H60         H  0.53060969  0.43769870  0.14844226     0.12400
H61         H  0.10582450  0.40013379  0.01764086     0.12300
H62         H  0.12734893  0.34222737  0.05172904     0.12100
H63         H  0.12614625  0.29888750  0.11451238     0.12600
H64         H  0.04763140  0.37615087  0.18199381     0.14600
C65         C  0.07572336  0.07074234  0.46433524    -0.05500
C66         C  0.11433025  0.08498473  0.45351026    -0.05400
C67         C  0.12122222  0.11184530  0.42015146    -0.23500
C68         C  0.08957463  0.12791768  0.39860104     0.18700
C69         C  0.05101219  0.11819366  0.41255573     0.15900
C70         C  0.04503963  0.09225444  0.44663910    -0.18600
C71         C  0.01875197  0.13579028  0.39367009    -0.20400
C72         C  0.02468599  0.16262968  0.36059200    -0.13000
C73         C  0.06302637  0.17296348  0.34627991     0.03700
C74         C  0.09555051  0.15532823  0.36542508    -0.25100
H75         H  0.13994558  0.07485043  0.46966663     0.08800
H76         H  0.15127690  0.12040556  0.41173440     0.12400
H77         H  0.01779221  0.09440784  0.46394756     0.12300
H78         H  0.98888760  0.12858011  0.40431103     0.12100
H79         H  0.99908660  0.17558988  0.34650202     0.12600
H80         H  0.12530473  0.16331088  0.35509786     0.14600
C81         C  0.06886779  0.06449759  0.04483271    -0.05500
C82         C  0.07113495  0.04869675  0.08697365    -0.05400
C83         C  0.07150593  0.07163310  0.12410807    -0.23500
C84         C  0.06900773  0.11187400  0.12114575     0.18700
C85         C  0.06616297  0.12901331  0.08024673     0.15500
C86         C  0.06716211  0.10589704  0.04322743    -0.18600
C87         C  0.06290745  0.16942923  0.07662596    -0.20400
C88         C  0.06302325  0.19260560  0.11331184    -0.13000
C89         C  0.06713066  0.17587278  0.15399826     0.03700
C90         C  0.07017593  0.13547070  0.15806875    -0.25100
H91         H  0.07630494  0.01882101  0.09189753     0.08800
H92         H  0.07451349  0.05774737  0.15516700     0.12400
H93         H  0.06734226  0.12185216  0.01357054     0.12300
H94         H  0.06042694  0.18315590  0.04540934     0.12100
H95         H  0.06085137  0.22381303  0.10990434     0.12600
H96         H  0.07341305  0.12263444  0.18966032     0.14600
C97         C  0.41394683  0.99480370  0.32728368    -0.05500
C98         C  0.44421313  0.96753510  0.32155809    -0.05400
C99         C  0.47658592  0.96729931  0.34913266    -0.23500
C100        C  0.47838635  0.99333061  0.38393560     0.18700
C101        C  0.44801984  0.02058046  0.38903342     0.15900
C102        C  0.42066196  0.51776441  0.36160762    -0.18600
C103        C  0.45353813  0.54290971  0.42382600    -0.20400
C104        C  0.48194073  0.53937604  0.45486332    -0.13000
C105        C  0.50742259  0.01417184  0.45312939     0.03700
C106        C  0.50870409  0.99142730  0.41470701    -0.25100
H107        H  0.44274049  0.94633568  0.29588395     0.08800
H108        H  0.49927709  0.94582900  0.34426872     0.12400
H109        H  0.39789726  0.53930306  0.36577469     0.12300
H110        H  0.43050723  0.56409350  0.42846701     0.12100
H111        H  0.47703610  0.55740961  0.48274308     0.12600
H112        H  0.03199191  0.97171661  0.40755012     0.14600
C113        C  0.49907901  0.00411289  0.03254147    -0.05500
C114        C  0.47743256  0.47353739  0.02536550    -0.05400
C115        C  0.44845707  0.46524976  0.05623501    -0.23500
C116        C  0.44222711  0.49097682  0.08995907     0.18700
C117        C  0.45624204  0.02871395  0.09091835     0.15900
C118        C  0.48732218  0.03434009  0.06090123    -0.18600
C119        C  0.44569076  0.05811289  0.11990922    -0.20400
C120        C  0.41510053  0.05168195  0.14999036    -0.13000
C121        C  0.39491102  0.01569323  0.15162363     0.03700
C122        C  0.41323462  0.48285149  0.12133331    -0.25100
H123        H  0.47554068  0.45800687  0.99563632     0.08800
H124        H  0.42958487  0.43987313  0.05237126     0.12400
H125        H  0.99926404  0.06324144  0.05797345     0.12300
H126        H  0.46140721  0.08574315  0.11973844     0.12100
H127        H  0.40798571  0.07447948  0.17273719     0.12600
H128        H  0.39722216  0.45536493  0.12078997     0.14600
C129        C  0.12738619  0.00320048  0.46063680    -0.05500
C130        C  0.11250325  0.00655471  0.41843988    -0.05400
C131        C  0.13650114  0.00209795  0.38163780    -0.23500
C132        C  0.17613176  0.99234647  0.38533624     0.18700
C133        C  0.19193206  0.98791565  0.42650122     0.15900
C134        C  0.17382820  0.48941032  0.45890229    -0.18600
C135        C  0.23572503  0.47043876  0.42511781    -0.20400
C136        C  0.25890641  0.46472463  0.38818504    -0.13000
C137        C  0.24025399  0.97758726  0.35307582     0.03700
C138        C  0.20059454  0.98778564  0.34871122    -0.25100
H139        H  0.08221769  0.01317241  0.41354838     0.08800
H140        H  0.12376800  0.00564797  0.35020830     0.12400
H141        H  0.18890724  0.48618487  0.48878231     0.12300
H142        H  0.24884548  0.46672399  0.45633174     0.12100
H143        H  0.28975522  0.45776965  0.39139528     0.12600
H144        H  0.18928146  0.99336609  0.31693899     0.14600
C145        C  0.13080418  0.00691172  0.04022632    -0.05500
C146        C  0.15023357  0.04298763  0.04847069    -0.05400
C147        C  0.17600822  0.04790948  0.08261178    -0.23500
C148        C  0.18570473  0.01635125  0.10825360     0.18700
C149        C  0.17834664  0.47688952  0.09233975     0.15900
C150        C  0.15196654  0.47389892  0.05829784    -0.18600
C151        C  0.19075938  0.44355598  0.11368927    -0.20400
C152        C  0.21803943  0.44659654  0.14658428    -0.13000
C153        C  0.22431284  0.98810062  0.16546641     0.03700
C154        C  0.21226898  0.02071897  0.14218918    -0.25100
H155        H  0.14410987  0.06858597  0.03020315     0.08800
H156        H  0.18850054  0.07646285  0.08871266     0.12400
H157        H  0.14809025  0.44604327  0.04409680     0.12300
H158        H  0.17934489  0.41514016  0.10497236     0.12100
H159        H  0.22715679  0.42028141  0.16238987     0.12600
H160        H  0.22481601  0.04909326  0.14915140     0.14600
C161        C  0.10679164  0.50230276  0.49989987    -0.02700
O162        O  0.36435091  0.46922007  0.69478161    -0.73200
O163        O  0.29051258  0.44932478  0.79581682    -0.74100
O164        O  0.28190372  0.45519109  0.70495656    -0.62800
O165        O  0.37381714  0.46082461  0.78348489    -0.71200
O166        O  0.35719078  0.01935857  0.79699181    -0.70700
O167        O  0.26850343  0.01716489  0.71106082    -0.62000
O168        O  0.27361769  0.00915062  0.80152189    -0.74500
O169        O  0.35117390  0.02952376  0.70751165    -0.73300
Cu170      Cu  0.32776997  0.45636905  0.74456072     1.04600
Cu171      Cu  0.31224334  0.02094332  0.75468305     1.04300
C172        C  0.36665386  0.00149540  0.68690816     0.93000
C173        C  0.26642924  0.97474808  0.81470553     0.92200
C174        C  0.25801050  0.98452691  0.69478802     0.84300
C175        C  0.37695729  0.98850220  0.80340722     0.90600
C176        C  0.03176960  0.00832774  0.49638573    -0.02700
C177        C  0.06760084  0.04084814  0.50245844    -0.02700
O178        O  0.09606438  0.21018308  0.79787403    -0.73200
O179        O  0.10514072  0.28912101  0.70326646    -0.74100
O180        O  0.10847800  0.29216386  0.79496790    -0.62800
O181        O  0.09272036  0.20844842  0.70680034    -0.71200
O182        O  0.02835207  0.21977262  0.70799455    -0.70700
O183        O  0.04370827  0.29920278  0.80083205    -0.62000
O184        O  0.04102905  0.30080268  0.70953254    -0.74500
O185        O  0.03124355  0.21771971  0.79950887    -0.73300
Cu186      Cu  0.10288613  0.24970763  0.75075564     1.04600
Cu187      Cu  0.03381720  0.25963661  0.75477166     1.04300
C188        C  0.06194097  0.20098391  0.81320905     0.93000
C189        C  0.07455529  0.30691184  0.69107295     0.92200
C190        C  0.07853143  0.30875070  0.81212772     0.84300
C191        C  0.05823901  0.20205727  0.69248134     0.90600
C192        C  0.07077346  0.47185001  0.00171646    -0.02700
C193        C  0.06753675  0.43941664  0.96576250    -0.05500
C194        C  0.03342831  0.41516354  0.96520950    -0.05400
C195        C  0.02737376  0.38722642  0.93337541    -0.23500
C196        C  0.05750509  0.37887048  0.90374009     0.18700
C197        C  0.09460577  0.39692657  0.90849225     0.15900
C198        C  0.09973934  0.42490615  0.94084395    -0.18600
C199        C  0.12642294  0.38563364  0.88197323    -0.20400
C200        C  0.12118309  0.35702214  0.85060433    -0.13000
C201        C  0.08406533  0.33918141  0.84521811     0.03700
C202        C  0.05225722  0.35036043  0.87202519    -0.25100
H203        H  0.01347395  0.41404043  0.99227781     0.08800
H204        H  0.00002491  0.37054631  0.93366845     0.12400
H205        H  0.12958750  0.43177138  0.94875415     0.12300
H206        H  0.15530419  0.39902659  0.88538526     0.12100
H207        H  0.14616614  0.34898701  0.83040192     0.12600
H208        H  0.02367621  0.33624085  0.86895157     0.14600
C209        C  0.06787723  0.44552199  0.54606463    -0.05500
C210        C  0.04796439  0.45555033  0.58529086    -0.05400
C211        C  0.04459899  0.43062675  0.62063903    -0.23500
C212        C  0.06170447  0.39428267  0.61948547     0.18700
C213        C  0.08278365  0.38299126  0.58229673     0.15900
C214        C  0.08513967  0.40781687  0.54655786    -0.18600
C215        C  0.10159774  0.34699261  0.58140261    -0.20400
C216        C  0.09947222  0.32264864  0.61733947    -0.13000
C217        C  0.07779792  0.33353824  0.65424429     0.03700
C218        C  0.05859491  0.36926947  0.65510961    -0.25100
H219        H  0.03451299  0.48254718  0.59154800     0.08800
H220        H  0.52872798  0.44017274  0.64931996     0.12400
H221        H  0.10235887  0.39757447  0.51940426     0.12300
H222        H  0.11806702  0.33773959  0.55303665     0.12100
H223        H  0.11406560  0.29489810  0.61602940     0.12600
H224        H  0.04197919  0.37781346  0.68370090     0.14600
C225        C  0.07604638  0.06790857  0.96315255    -0.05500
C226        C  0.11411740  0.08097373  0.94860574    -0.05400
C227        C  0.11915247  0.10730285  0.91452297    -0.23500
C228        C  0.08644494  0.12454073  0.89631891     0.18700
C229        C  0.04878408  0.11634213  0.91409666     0.15900
C230        C  0.04460706  0.09027478  0.94840768    -0.18600
C231        C  0.01587414  0.13553838  0.89866174    -0.20400
C232        C  0.02025990  0.16246411  0.86535751    -0.13000
C233        C  0.05771219  0.17110427  0.84726447     0.03700
C234        C  0.09083445  0.15176544  0.86280203    -0.25100
H235        H  0.14076798  0.07020644  0.96197737     0.08800
H236        H  0.14872135  0.11470837  0.90306050     0.12400
H237        H  0.01837952  0.09221930  0.96778695     0.12300
H238        H  0.98671172  0.12963458  0.91228525     0.12100
H239        H  0.99425806  0.17688514  0.85413877     0.12600
H240        H  0.11998172  0.15841081  0.84953067     0.14600
C241        C  0.06422100  0.06620203  0.54534443    -0.05500
C242        C  0.06554297  0.05010488  0.58737819    -0.05400
C243        C  0.06248674  0.07264886  0.62473272    -0.23500
C244        C  0.05796002  0.11274339  0.62200060     0.18700
C245        C  0.05590751  0.13010175  0.58115481     0.15500
C246        C  0.05983006  0.10741328  0.54400588    -0.18600
C247        C  0.05103853  0.17038625  0.57776936    -0.20400
C248        C  0.04977430  0.19335276  0.61464991    -0.13000
C249        C  0.05370144  0.17648146  0.65530536     0.03700
C250        C  0.05725492  0.13610148  0.65913543    -0.25100
H251        H  0.07221379  0.02042147  0.59220215     0.08800
H252        H  0.06480257  0.05868745  0.65583158     0.12400
H253        H  0.06007180  0.12358489  0.51451096     0.12300
H254        H  0.04910102  0.18425461  0.54656187     0.12100
H255        H  0.04734310  0.22455505  0.61138268     0.12600
H256        H  0.06044735  0.12318417  0.69068649     0.14600
C257        C  0.41190425  0.98954671  0.83137706    -0.05500
C258        C  0.44335498  0.96378068  0.82484389    -0.05400
C259        C  0.47601585  0.96455949  0.85197584    -0.23500
C260        C  0.47726107  0.99028762  0.88706064     0.18700
C261        C  0.44573148  0.01605270  0.89327129     0.15900
C262        C  0.42188294  0.52088894  0.86139507    -0.18600
C263        C  0.45316227  0.54384878  0.92539733    -0.20400
C264        C  0.48160343  0.54011198  0.95625029    -0.13000
C265        C  0.50754163  0.01222839  0.95527443     0.03700
C266        C  0.50850702  0.98959941  0.91679532    -0.25100
H267        H  0.44275947  0.94313501  0.79858078     0.08800
H268        H  0.49967723  0.94429246  0.84624777     0.12400
H269        H  0.39803579  0.54103652  0.86696284     0.12300
H270        H  0.42946866  0.56416955  0.93089246     0.12100
H271        H  0.47651777  0.55761649  0.98451717     0.12600
H272        H  0.03237655  0.97085318  0.90874941     0.14600
C273        C  0.49652582  0.00469042  0.52969389    -0.05500
C274        C  0.47690387  0.47318348  0.52543495    -0.05400
C275        C  0.44770372  0.46571070  0.55625598    -0.23500
C276        C  0.44164261  0.49201039  0.58944838     0.18700
C277        C  0.45375050  0.02689245  0.58916668     0.15900
C278        C  0.48367866  0.03419713  0.55831909    -0.18600
C279        C  0.44347998  0.05520534  0.61950663    -0.20400
C280        C  0.41461586  0.04700832  0.65094888    -0.13000
C281        C  0.39576655  0.01036004  0.65256141     0.03700
C282        C  0.41252022  0.48457987  0.62077375    -0.25100
H283        H  0.47524041  0.45695845  0.49623266     0.08800
H284        H  0.42865851  0.44039819  0.55284903     0.12400
H285        H  0.99437068  0.06354504  0.55557219     0.12300
H286        H  0.45820986  0.08334667  0.61939193     0.12100
H287        H  0.40763979  0.06910981  0.67458159     0.12600
H288        H  0.39616400  0.45728062  0.62052526     0.14600
C289        C  0.12802536  0.99902566  0.95956679    -0.05500
C290        C  0.11291399  0.00290386  0.91754169    -0.05400
C291        C  0.13652425  0.99796398  0.88059097    -0.23500
C292        C  0.17573050  0.98673198  0.88398624     0.18700
C293        C  0.19141899  0.98075615  0.92496484     0.15900
C294        C  0.17469877  0.49065501  0.95957113    -0.18600
C295        C  0.23698649  0.47143493  0.92666735    -0.20400
C296        C  0.26080839  0.46641885  0.89003206    -0.13000
C297        C  0.23897372  0.97004145  0.85120936     0.03700
C298        C  0.19984341  0.98196889  0.84721485    -0.25100
H299        H  0.08289554  0.01071018  0.91287640     0.08800
H300        H  0.12382385  0.00236889  0.84928185     0.12400
H301        H  0.18936721  0.48681843  0.98956619     0.12300
H302        H  0.24939963  0.46657698  0.95805116     0.12100
H303        H  0.29143347  0.45874669  0.89360717     0.12600
H304        H  0.18875370  0.98879808  0.81564612     0.14600
C305        C  0.12828663  0.00806222  0.54214408    -0.05500
C306        C  0.14565057  0.04407811  0.55469203    -0.05400
C307        C  0.17147535  0.04702229  0.58908418    -0.23500
C308        C  0.18429141  0.01369799  0.60982745     0.18700
C309        C  0.17806039  0.47510133  0.59337262     0.15900
C310        C  0.15164738  0.47172306  0.55908038    -0.18600
C311        C  0.19122171  0.44210990  0.61494485    -0.20400
C312        C  0.21840992  0.44580602  0.64806577    -0.13000
C313        C  0.22692079  0.98237178  0.66164857     0.03700
C314        C  0.21142262  0.01622377  0.64350431    -0.25100
H315        H  0.13847158  0.07087288  0.53913336     0.08800
H316        H  0.18215125  0.07545926  0.59871425     0.12400
H317        H  0.14653797  0.44345565  0.54597448     0.12300
H318        H  0.18064685  0.41342590  0.60606531     0.12100
H319        H  0.22833662  0.41971977  0.66371433     0.12600
H320        H  0.22138491  0.04448328  0.65454807     0.14600
C321        C  0.10133915  0.00297888  0.00157397    -0.02700
O322        O  0.35558548  0.97256659  0.19530382    -0.73200
O323        O  0.28390765  0.95253651  0.29857417    -0.74100
O324        O  0.27340400  0.96008784  0.20842905    -0.62800
O325        O  0.36721444  0.96236182  0.28350088    -0.71200
O326        O  0.36229705  0.51962131  0.29529062    -0.70700
O327        O  0.27528662  0.51797464  0.20751390    -0.62000
O328        O  0.27829288  0.50998022  0.29790757    -0.74500
O329        O  0.35803123  0.53004458  0.20591098    -0.73300
Cu330      Cu  0.32010998  0.95962893  0.24619659     1.04600
Cu331      Cu  0.31807640  0.52157083  0.25204444     1.04300
C332        C  0.37385553  0.50190406  0.18586302     0.93000
C333        C  0.27058717  0.47560054  0.31085303     0.92200
C334        C  0.26474076  0.48528083  0.19145456     0.84300
C335        C  0.38176765  0.48859621  0.30189976     0.90600
C336        C  0.03918702  0.50789853  0.99577065    -0.02700
C337        C  0.07568462  0.53979093  0.00067330    -0.02700
O338        O  0.10418624  0.71173461  0.29947907    -0.73200
O339        O  0.11447654  0.79181100  0.20566996    -0.74100
O340        O  0.11322724  0.79419065  0.29767796    -0.62800
O341        O  0.10580652  0.71018380  0.20800105    -0.71200
O342        O  0.04104728  0.71850762  0.20600841    -0.70700
O343        O  0.04808299  0.79855525  0.30045634    -0.62000
O344        O  0.04969206  0.80034571  0.20913692    -0.74500
O345        O  0.03913112  0.71672866  0.29777012    -0.73300
Cu346      Cu  0.11172494  0.75177139  0.25286055     1.04600
Cu347      Cu  0.04222858  0.75865918  0.25344756     1.04300
C348        C  0.06981612  0.70133579  0.31315735     0.93000
C349        C  0.08355039  0.80848150  0.19252028     0.92200
C350        C  0.08197631  0.80955176  0.31344633     0.84300
C351        C  0.07234514  0.70210941  0.19194063     0.90600
C352        C  0.06393168  0.97288654  0.50308782    -0.02700
C353        C  0.06241030  0.94040273  0.46682880    -0.05500
C354        C  0.02896857  0.91529351  0.46506098    -0.05400
C355        C  0.02465908  0.88698618  0.43315121    -0.23500
C356        C  0.05577060  0.87937719  0.40441067     0.18700
C357        C  0.09206896  0.89873424  0.41013334     0.15900
C358        C  0.09557653  0.92680572  0.44273063    -0.18600
C359        C  0.12480353  0.88863941  0.38435170    -0.20400
C360        C  0.12136282  0.85980345  0.35292517    -0.13000
C361        C  0.08517193  0.84038378  0.34667183     0.03700
C362        C  0.05233054  0.85048495  0.37262511    -0.25100
H363        H  0.00804778  0.91399963  0.49120975     0.08800
H364        H  0.99781047  0.86956188  0.43262496     0.12400
H365        H  0.12502223  0.93454464  0.45144126     0.12300
H366        H  0.15306235  0.90312500  0.38841059     0.12100
H367        H  0.14709101  0.85278353  0.33336303     0.12600
H368        H  0.02441666  0.83526800  0.36883502     0.14600
C369        C  0.06384524  0.94530343  0.04755689    -0.05500
C370        C  0.04437613  0.95438874  0.08738634    -0.05400
C371        C  0.04483128  0.93012098  0.12338676    -0.23500
C372        C  0.06486834  0.89525703  0.12203130     0.18700
C373        C  0.08463049  0.88454736  0.08381069     0.15900
C374        C  0.08296455  0.90847080  0.04739774    -0.18600
C375        C  0.10626166  0.85010789  0.08259201    -0.20400
C376        C  0.10744940  0.82625951  0.11891429    -0.13000
C377        C  0.08637007  0.83609792  0.15656376     0.03700
C378        C  0.06526853  0.87077897  0.15813943    -0.25100
H379        H  0.02878914  0.98026935  0.09385928     0.08800
H380        H  0.52956249  0.93900705  0.15271810     0.12400
H381        H  0.09957331  0.89889471  0.01949219     0.12300
H382        H  0.12199455  0.84147288  0.05349602     0.12100
H383        H  0.12351743  0.79934456  0.11708476     0.12600
H384        H  0.04911084  0.87851548  0.18733324     0.14600
C385        C  0.08239972  0.56792138  0.46246147    -0.05500
C386        C  0.12059742  0.58034049  0.44777565    -0.05400
C387        C  0.12585098  0.60642341  0.41351862    -0.23500
C388        C  0.09333738  0.62444428  0.39583400     0.18700
C389        C  0.05574128  0.61734785  0.41433671     0.15900
C390        C  0.05132208  0.59105201  0.44832131    -0.18600
C391        C  0.02323120  0.63781365  0.39992533    -0.20400
C392        C  0.02788596  0.66461819  0.36656139    -0.13000
C393        C  0.06522416  0.67178252  0.34740652     0.03700
C394        C  0.09797375  0.65145871  0.36220807    -0.25100
H395        H  0.14709750  0.56937114  0.46134825     0.08800
H396        H  0.15544667  0.61319163  0.40167441     0.12400
H397        H  0.02537096  0.59343784  0.46814752     0.12300
H398        H  0.99418536  0.63296305  0.41434738     0.12100
H399        H  0.00223162  0.68010283  0.35612975     0.12600
H400        H  0.12704003  0.65711061  0.34819149     0.14600
C401        C  0.07493498  0.56544533  0.04378672    -0.05500
C402        C  0.07645994  0.54934354  0.08583688    -0.05400
C403        C  0.07521781  0.57201878  0.12330824    -0.23500
C404        C  0.07287246  0.61238561  0.12074998     0.18700
C405        C  0.07231211  0.62987741  0.07986892     0.15500
C406        C  0.07434090  0.60696779  0.04262867    -0.18600
C407        C  0.07031173  0.67043973  0.07649016    -0.20400
C408        C  0.06917924  0.69342423  0.11339281    -0.13000
C409        C  0.07052065  0.67641010  0.15426029     0.03700
C410        C  0.07239215  0.63578481  0.15804060    -0.25100
H411        H  0.08174238  0.51937763  0.09047715     0.08800
H412        H  0.07696238  0.55784969  0.15435543     0.12400
H413        H  0.07639447  0.62318170  0.01314205     0.12300
H414        H  0.06981250  0.68445543  0.04525562     0.12100
H415        H  0.06811152  0.72471181  0.11005469     0.12600
H416        H  0.07375222  0.62262632  0.18968044     0.14600
C417        C  0.41678718  0.48929562  0.32983654    -0.05500
C418        C  0.44650957  0.46133066  0.32523104    -0.05400
C419        C  0.47939700  0.46190123  0.35201263    -0.23500
C420        C  0.48246454  0.48954076  0.38510588     0.18700
C421        C  0.45250045  0.51723248  0.38973144     0.15900
C422        C  0.41691781  0.02199748  0.36029070    -0.18600
C423        C  0.44762047  0.04482628  0.42428066    -0.20400
C424        C  0.47517201  0.04051750  0.45583432    -0.13000
C425        C  0.51386929  0.51256422  0.45235202     0.03700
C426        C  0.51385099  0.48882077  0.41465359    -0.25100
H427        H  0.44443603  0.43910951  0.30069864     0.08800
H428        H  0.50167982  0.43993826  0.34775659     0.12400
H429        H  0.39366132  0.04291865  0.36522348     0.12300
H430        H  0.42431804  0.06570540  0.42907999     0.12100
H431        H  0.47003944  0.05843286  0.48374825     0.12600
H432        H  0.03699608  0.46911342  0.40709431     0.14600
C433        C  0.50471699  0.50467347  0.02978371    -0.05500
C434        C  0.47194365  0.97274265  0.02931540    -0.05400
C435        C  0.44196852  0.96603785  0.05947141    -0.23500
C436        C  0.43470776  0.99336501  0.09133073     0.18700
C437        C  0.46331696  0.52661973  0.09041580     0.15900
C438        C  0.49324439  0.53388989  0.05942910    -0.18600
C439        C  0.45367053  0.55455677  0.12143834    -0.20400
C440        C  0.42412222  0.54661159  0.15227046    -0.13000
C441        C  0.40412971  0.51051478  0.15270100     0.03700
C442        C  0.40452043  0.98686427  0.12177809    -0.25100
H443        H  0.47061064  0.95592468  0.00045158     0.08800
H444        H  0.42301958  0.94063208  0.05628592     0.12400
H445        H  0.00509409  0.56290187  0.05745635     0.12300
H446        H  0.46913868  0.58230055  0.12208247     0.12100
H447        H  0.41736323  0.56848252  0.17623848     0.12600
H448        H  0.38839408  0.95943373  0.12209690     0.14600
C449        C  0.13302103  0.49868554  0.45736119    -0.05500
C450        C  0.11724185  0.50203500  0.41555407    -0.05400
C451        C  0.14023119  0.49653752  0.37816013    -0.23500
C452        C  0.17981701  0.48629500  0.38093125     0.18700
C453        C  0.19641623  0.48201454  0.42175599     0.15900
C454        C  0.16847395  0.99509346  0.46314414    -0.18600
C455        C  0.23124753  0.97638683  0.43060026    -0.20400
C456        C  0.25516598  0.97096590  0.39403573    -0.13000
C457        C  0.24329400  0.47102019  0.34753096     0.03700
C458        C  0.20356830  0.48128137  0.34379444    -0.25100
H459        H  0.08717152  0.50982420  0.41144266     0.08800
H460        H  0.12685810  0.50004691  0.34705086     0.12400
H461        H  0.18326379  0.99286917  0.49327537     0.12300
H462        H  0.24372748  0.97233077  0.46209276     0.12100
H463        H  0.28590855  0.96384385  0.39779120     0.12600
H464        H  0.19175823  0.48674228  0.31222073     0.14600
C465        C  0.13647059  0.50691485  0.03819985    -0.05500
C466        C  0.15609317  0.54263378  0.04741018    -0.05400
C467        C  0.18299566  0.54614731  0.08067506    -0.23500
C468        C  0.19365508  0.51349834  0.10410636     0.18700
C469        C  0.17052612  0.97931170  0.09789596     0.15900
C470        C  0.14541716  0.97480100  0.06279880    -0.18600
C471        C  0.18177630  0.94700484  0.12181547    -0.20400
C472        C  0.20823932  0.95138919  0.15532885    -0.13000
C473        C  0.23372847  0.48298132  0.15858024     0.03700
C474        C  0.22109527  0.51647668  0.13728873    -0.25100
H475        H  0.14989404  0.56872725  0.02994088     0.08800
H476        H  0.19579159  0.57439777  0.08764504     0.12400
H477        H  0.14149734  0.94629813  0.05039672     0.12300
H478        H  0.17033300  0.91829189  0.11440944     0.12100
H479        H  0.21680116  0.92573289  0.17277357     0.12600
H480        H  0.23342011  0.54462883  0.14560408     0.14600
C481        C  0.09986231  0.00573257  0.50237154    -0.02700
O482        O  0.35751815  0.96626664  0.69632933    -0.73200
O483        O  0.28333125  0.94558704  0.79722822    -0.74100
O484        O  0.27500737  0.95340818  0.70617305    -0.62800
O485        O  0.36680535  0.95662288  0.78559519    -0.71200
O486        O  0.36420126  0.52373231  0.79369302    -0.70700
O487        O  0.27477194  0.51895921  0.70839257    -0.62000
O488        O  0.28042994  0.51288313  0.79900549    -0.74500
O489        O  0.35754267  0.53265048  0.70451660    -0.73300
Cu490      Cu  0.32079374  0.95316543  0.74611373     1.04600
Cu491      Cu  0.31877860  0.52424592  0.75175526     1.04300
C492        C  0.37362024  0.50435338  0.68503926     0.93000
C493        C  0.27342635  0.47862929  0.81275555     0.92200
C494        C  0.26444034  0.48584676  0.69308367     0.84300
C495        C  0.38419827  0.49303190  0.80031808     0.90600
C496        C  0.03885856  0.50675668  0.49549752    -0.02700
C497        C  0.07561659  0.53832312  0.50093262    -0.02700
O498        O  0.09977587  0.71330509  0.79838043    -0.73200
O499        O  0.10785177  0.79155961  0.70266101    -0.74100
O500        O  0.10736977  0.79567827  0.79429014    -0.62800
O501        O  0.10061856  0.70993830  0.70713063    -0.71200
O502        O  0.03576109  0.71762321  0.70521311    -0.70700
O503        O  0.04219494  0.79938201  0.79803926    -0.62000
O504        O  0.04302667  0.79964654  0.70659403    -0.74500
O505        O  0.03461673  0.71718945  0.79717390    -0.73300
Cu506      Cu  0.10616777  0.75246927  0.75073472     1.04600
Cu507      Cu  0.03658928  0.75854204  0.75187566     1.04300
C508        C  0.06570001  0.70250857  0.81255875     0.93000
C509        C  0.07670684  0.80784579  0.68953974     0.92200
C510        C  0.07616538  0.81092065  0.81027098     0.84300
C511        C  0.06719072  0.70129064  0.69138038     0.90600
C512        C  0.06482170  0.97063711  0.00388439    -0.02700
C513        C  0.06172059  0.93820115  0.96768818    -0.05500
C514        C  0.02773377  0.91381815  0.96610039    -0.05400
C515        C  0.02189269  0.88689895  0.93297103    -0.23500
C516        C  0.05216821  0.87968571  0.90296226     0.18700
C517        C  0.08913162  0.89767711  0.90887762     0.15900
C518        C  0.09405329  0.92408156  0.94279311    -0.18600
C519        C  0.12114769  0.88785117  0.88198085    -0.20400
C520        C  0.11647988  0.86033340  0.84944789    -0.13000
C521        C  0.07979444  0.84184248  0.84327688     0.03700
C522        C  0.04746762  0.85206095  0.86998497    -0.25100
H523        H  0.00754492  0.91194777  0.99299945     0.08800
H524        H  0.99461902  0.87015157  0.93239719     0.12400
H525        H  0.12379399  0.93015904  0.95170307     0.12300
H526        H  0.14986364  0.90135513  0.88619554     0.12100
H527        H  0.14181532  0.85325441  0.82929682     0.12600
H528        H  0.01917198  0.83757074  0.86618562     0.14600
C529        C  0.06223992  0.94742601  0.54668638    -0.05500
C530        C  0.04048988  0.95532082  0.58543892    -0.05400
C531        C  0.03820187  0.92962779  0.62021650    -0.23500
C532        C  0.05865052  0.89499248  0.61915709     0.18700
C533        C  0.08170187  0.88609147  0.58255275     0.15900
C534        C  0.08225438  0.91112624  0.54702226    -0.18600
C535        C  0.10426747  0.85227055  0.58200689    -0.20400
C536        C  0.10353718  0.82744340  0.61756111    -0.13000
C537        C  0.07940727  0.83551137  0.65358012     0.03700
C538        C  0.05685536  0.86931524  0.65424978    -0.25100
H539        H  0.02497951  0.98120620  0.59194348     0.08800
H540        H  0.52075884  0.93737580  0.64851955     0.12400
H541        H  0.10034778  0.90233016  0.51988460     0.12300
H542        H  0.12254310  0.84508054  0.55418126     0.12100
H543        H  0.12093448  0.80133268  0.61646132     0.12600
H544        H  0.03847052  0.87582067  0.68225171     0.14600
C545        C  0.08173446  0.56945881  0.96210617    -0.05500
C546        C  0.11965329  0.58239782  0.94707854    -0.05400
C547        C  0.12427494  0.60889808  0.91306679    -0.23500
C548        C  0.09134101  0.62654046  0.89574268     0.18700
C549        C  0.05398675  0.61878786  0.91453523     0.15900
C550        C  0.05030368  0.59256722  0.94873070    -0.18600
C551        C  0.02094862  0.63842142  0.90008189    -0.20400
C552        C  0.02484296  0.66511349  0.86648013    -0.13000
C553        C  0.06196161  0.67316680  0.84722773     0.03700
C554        C  0.09525759  0.65367309  0.86208256    -0.25100
H555        H  0.14638096  0.57166663  0.96040768     0.08800
H556        H  0.15369086  0.61616774  0.90102713     0.12400
H557        H  0.02454964  0.59464572  0.96896884     0.12300
H558        H  0.99204622  0.63291127  0.91457144     0.12100
H559        H  0.99875409  0.67981007  0.85592618     0.12600
H560        H  0.12415436  0.65991895  0.84793522     0.14600
C561        C  0.07472092  0.56397940  0.54416926    -0.05500
C562        C  0.07727311  0.54820891  0.58635683    -0.05400
C563        C  0.07615690  0.57109496  0.62368686    -0.23500
C564        C  0.07169982  0.61122684  0.62098094     0.18700
C565        C  0.06913763  0.62831724  0.58007255     0.15500
C566        C  0.07231497  0.60540934  0.54293713    -0.18600
C567        C  0.06382060  0.66851364  0.57652174    -0.20400
C568        C  0.06160342  0.69158470  0.61328628    -0.13000
C569        C  0.06559866  0.67512047  0.65413149     0.03700
C570        C  0.07076790  0.63483947  0.65809238    -0.25100
H571        H  0.08378386  0.51852747  0.59136792     0.08800
H572        H  0.07929618  0.55725456  0.65474726     0.12400
H573        H  0.07342838  0.62165294  0.51350908     0.12300
H574        H  0.06144766  0.68217278  0.54525699     0.12100
H575        H  0.05793721  0.72262334  0.60980389     0.12600
H576        H  0.07409147  0.62211495  0.68971892     0.14600
C577        C  0.41958235  0.49434029  0.82756079    -0.05500
C578        C  0.45070068  0.46817882  0.82095304    -0.05400
C579        C  0.48312599  0.46814940  0.84839261    -0.23500
C580        C  0.48442646  0.49345130  0.88384350     0.18700
C581        C  0.45342259  0.51988460  0.88982540     0.15900
C582        C  0.41386444  0.01617570  0.86522186    -0.18600
C583        C  0.44562383  0.04059930  0.92836968    -0.20400
C584        C  0.47476228  0.03800589  0.95862901    -0.13000
C585        C  0.51406598  0.51398304  0.95290808     0.03700
C586        C  0.51505468  0.49157388  0.91425463    -0.25100
H587        H  0.44985676  0.44761631  0.79461362     0.08800
H588        H  0.50640704  0.44743863  0.84276113     0.12400
H589        H  0.38975596  0.03602491  0.87078977     0.12300
H590        H  0.42168112  0.06063626  0.93388672     0.12100
H591        H  0.47004962  0.05624004  0.98637186     0.12600
H592        H  0.03836269  0.47201502  0.90665932     0.14600
C593        C  0.50423961  0.50430728  0.52926767    -0.05500
C594        C  0.46988597  0.97297574  0.52545233    -0.05400
C595        C  0.44058332  0.96469601  0.55615964    -0.23500
C596        C  0.43356754  0.99079902  0.58945627     0.18700
C597        C  0.46312522  0.52742273  0.58948130     0.15900
C598        C  0.49296981  0.53405902  0.55831986    -0.18600
C599        C  0.45398549  0.55571906  0.62030024    -0.20400
C600        C  0.42435323  0.54839201  0.65121668    -0.13000
C601        C  0.40378002  0.51261119  0.65178806     0.03700
C602        C  0.40502477  0.98248460  0.62135608    -0.25100
H603        H  0.46894000  0.95676562  0.49613664     0.08800
H604        H  0.42232851  0.93883924  0.55270391     0.12400
H605        H  0.00493312  0.56297125  0.55583123     0.12300
H606        H  0.46992576  0.58322085  0.62073489     0.12100
H607        H  0.41798873  0.57043172  0.67512606     0.12600
H608        H  0.38977951  0.95458099  0.62160795     0.14600
C609        C  0.13399386  0.50048140  0.95741437    -0.05500
C610        C  0.11890208  0.50427330  0.91538813    -0.05400
C611        C  0.14265954  0.49967497  0.87840473    -0.23500
C612        C  0.18214726  0.48925844  0.88180632     0.18700
C613        C  0.19790165  0.48370713  0.92280102     0.15900
C614        C  0.16845021  0.98826842  0.96181642    -0.18600
C615        C  0.23009826  0.96729615  0.92864938    -0.20400
C616        C  0.25364922  0.96168849  0.89187587    -0.13000
C617        C  0.24600121  0.47417493  0.84930357     0.03700
C618        C  0.20654879  0.48511767  0.84511000    -0.25100
H619        H  0.08887593  0.51202698  0.91078571     0.08800
H620        H  0.12994071  0.50395369  0.84708408     0.12400
H621        H  0.18271080  0.98362068  0.99195127     0.12300
H622        H  0.24244139  0.96201690  0.95998038     0.12100
H623        H  0.28406292  0.95323583  0.89531492     0.12600
H624        H  0.19537810  0.49154506  0.81347523     0.14600
C625        C  0.13636947  0.50473020  0.53844364    -0.05500
C626        C  0.15579020  0.54051579  0.54780249    -0.05400
C627        C  0.18184445  0.54440582  0.58174834    -0.23500
C628        C  0.19256805  0.51199225  0.60543563     0.18700
C629        C  0.17178955  0.97713945  0.59456896     0.15900
C630        C  0.14553177  0.97478649  0.56013562    -0.18600
C631        C  0.18702338  0.94344129  0.61278999    -0.20400
C632        C  0.21420620  0.94602987  0.64594846    -0.13000
C633        C  0.23305914  0.48256286  0.66041499     0.03700
C634        C  0.21946596  0.51564666  0.63913627    -0.25100
H635        H  0.14954082  0.56661547  0.53040713     0.08800
H636        H  0.19403524  0.57285336  0.58901358     0.12400
H637        H  0.14287064  0.94750468  0.54400369     0.12300
H638        H  0.17803396  0.91503584  0.60126596     0.12100
H639        H  0.22565176  0.91940640  0.65896936     0.12600
H640        H  0.23091223  0.54410640  0.64764273     0.14600
C641        C  0.60723052  0.50408577  0.99952225    -0.02700
O642        O  0.86406941  0.46672636  0.19483513    -0.73200
O643        O  0.78769494  0.44635791  0.29378854    -0.74100
O644        O  0.78143066  0.45411544  0.20304831    -0.62800
O645        O  0.87144260  0.45679874  0.28405828    -0.71200
O646        O  0.85880328  0.02532258  0.29470473    -0.70700
O647        O  0.76731905  0.02397182  0.21247485    -0.62000
O648        O  0.77498919  0.01621557  0.30276065    -0.74500
O649        O  0.85012900  0.03598858  0.20598921    -0.73300
Cu650      Cu  0.82626982  0.45370521  0.24368591     1.04600
Cu651      Cu  0.81243687  0.02758123  0.25442584     1.04300
C652        C  0.86516651  0.00764582  0.18557258     0.93000
C653        C  0.76759006  0.98193884  0.31626952     0.92200
C654        C  0.75618347  0.99108651  0.19731940     0.84300
C655        C  0.87840994  0.99421859  0.30043974     0.90600
C656        C  0.53317495  0.00667981  0.99790619    -0.02700
C657        C  0.56969557  0.03858185  0.00209199    -0.02700
O658        O  0.60295623  0.21228482  0.29831349    -0.73200
O659        O  0.61396111  0.29007208  0.20199202    -0.74100
O660        O  0.61343314  0.29452592  0.29379247    -0.62800
O661        O  0.60368440  0.20891204  0.20695361    -0.71200
O662        O  0.53914604  0.21893176  0.20504068    -0.70700
O663        O  0.54840144  0.30018984  0.29695218    -0.62000
O664        O  0.54943762  0.30014189  0.20579415    -0.74500
O665        O  0.53804511  0.21845540  0.29647766    -0.73300
Cu666      Cu  0.61082499  0.25121886  0.25040815     1.04600
Cu667      Cu  0.54150083  0.25960381  0.25121969     1.04300
C668        C  0.56840917  0.20257763  0.31207033     0.93000
C669        C  0.58333437  0.30715244  0.18865967     0.92200
C670        C  0.58258848  0.31069999  0.30942448     0.84300
C671        C  0.56994411  0.20164294  0.19119269     0.90600
C672        C  0.57005217  0.47044500  0.50208520    -0.02700
C673        C  0.56744417  0.43786480  0.46618401    -0.05500
C674        C  0.53321075  0.41388800  0.46397669    -0.05400
C675        C  0.52772699  0.38709170  0.43072400    -0.23500
C676        C  0.55853206  0.37951503  0.40154873     0.18700
C677        C  0.59569772  0.39675127  0.40851891     0.15900
C678        C  0.60023720  0.42319537  0.44246810    -0.18600
C679        C  0.62810062  0.38626148  0.38249931    -0.20400
C680        C  0.62355766  0.35889537  0.34974618    -0.13000
C681        C  0.58658626  0.34138784  0.34249969     0.03700
C682        C  0.55395938  0.35225849  0.36831970    -0.25100
H683        H  0.51232178  0.41262361  0.49013998     0.08800
H684        H  0.50017975  0.37085030  0.42933126     0.12400
H685        H  0.62983624  0.42936120  0.45207096     0.12300
H686        H  0.65697534  0.39913995  0.38755063     0.12100
H687        H  0.64912493  0.35119673  0.33026801     0.12600
H688        H  0.52541559  0.33850020  0.36366642     0.14600
C689        C  0.56954417  0.44631995  0.04535855    -0.05500
C690        C  0.54898291  0.45481846  0.08467880    -0.05400
C691        C  0.54708449  0.42938818  0.11966413    -0.23500
C692        C  0.56664906  0.39429709  0.11820157     0.18700
C693        C  0.58837659  0.38453504  0.08094243     0.15900
C694        C  0.58850043  0.40937288  0.04519579    -0.18600
C695        C  0.61006245  0.35011268  0.08005606    -0.20400
C696        C  0.60961319  0.32553569  0.11588916    -0.13000
C697        C  0.58665450  0.33455574  0.15252610     0.03700
C698        C  0.56514485  0.36897162  0.15354412    -0.25100
H699        H  0.53415487  0.48095866  0.09148625     0.08800
H700        H  0.03060490  0.43769837  0.14843965     0.12400
H701        H  0.60582584  0.40013261  0.01764168     0.12300
H702        H  0.62735036  0.34222604  0.05172971     0.12100
H703        H  0.62614754  0.29888589  0.11451285     0.12600
H704        H  0.54763491  0.37615045  0.18199566     0.14600
C705        C  0.57572299  0.07074187  0.46433651    -0.05500
C706        C  0.61432999  0.08498411  0.45351191    -0.05400
C707        C  0.62122223  0.11184484  0.42015332    -0.23500
C708        C  0.58957479  0.12791763  0.39860302     0.18700
C709        C  0.55101227  0.11819396  0.41255771     0.15900
C710        C  0.54503944  0.09225437  0.44664064    -0.18600
C711        C  0.51875221  0.13579120  0.39367247    -0.20400
C712        C  0.52468646  0.16263059  0.36059445    -0.13000
C713        C  0.56302691  0.17296371  0.34628202     0.03700
C714        C  0.59555091  0.15532816  0.36542713    -0.25100
H715        H  0.63994514  0.07484970  0.46966855     0.08800
H716        H  0.65127699  0.12040493  0.41173640     0.12400
H717        H  0.51779206  0.09440776  0.46394912     0.12300
H718        H  0.48888778  0.12858141  0.40431356     0.12100
H719        H  0.49908718  0.17559120  0.34650467     0.12600
H720        H  0.62530519  0.16331041  0.35509975     0.14600
C721        C  0.56886937  0.06449655  0.04483359    -0.05500
C722        C  0.57113605  0.04869542  0.08697443    -0.05400
C723        C  0.57150724  0.07163149  0.12410907    -0.23500
C724        C  0.56900993  0.11187249  0.12114703     0.18700
C725        C  0.56616611  0.12901212  0.08024808     0.15500
C726        C  0.56716512  0.10589609  0.04322863    -0.18600
C727        C  0.56291168  0.16942813  0.07662745    -0.20400
C728        C  0.56302751  0.19260430  0.11331342    -0.13000
C729        C  0.56713386  0.17587118  0.15399983     0.03700
C730        C  0.57017815  0.13546900  0.15807021    -0.25100
H731        H  0.57630559  0.01881949  0.09189808     0.08800
H732        H  0.57451427  0.05774550  0.15516793     0.12400
H733        H  0.56734650  0.12185146  0.01357188     0.12300
H734        H  0.56043189  0.18315503  0.04541086     0.12100
H735        H  0.56085632  0.22381180  0.10990604     0.12600
H736        H  0.57341444  0.12263251  0.18966180     0.14600
C737        C  0.91394749  0.99480260  0.32728381    -0.05500
C738        C  0.94421366  0.96753385  0.32155833    -0.05400
C739        C  0.97658663  0.96729830  0.34913269    -0.23500
C740        C  0.97838727  0.99332991  0.38393535     0.18700
C741        C  0.94802082  0.02057982  0.38903308     0.15900
C742        C  0.92066214  0.51776355  0.36160840    -0.18600
C743        C  0.95353852  0.54291017  0.42382605    -0.20400
C744        C  0.98194157  0.53937740  0.45486305    -0.13000
C745        C  0.00742359  0.01417153  0.45312896     0.03700
C746        C  0.00870511  0.99142685  0.41470665    -0.25100
H747        H  0.94274079  0.94633419  0.29588445     0.08800
H748        H  0.99927774  0.94582790  0.34426886     0.12400
H749        H  0.89789711  0.53930187  0.36577544     0.12300
H750        H  0.93050730  0.56409362  0.42846704     0.12100
H751        H  0.97703685  0.55741107  0.48274273     0.12600
H752        H  0.53199082  0.97171696  0.40755053     0.14600
C753        C  0.99907835  0.00411261  0.03254114    -0.05500
C754        C  0.97742997  0.47353998  0.02536110    -0.05400
C755        C  0.94845370  0.46525254  0.05622988    -0.23500
C756        C  0.94222498  0.49097833  0.08995548     0.18700
C757        C  0.95624201  0.02871247  0.09091921     0.15900
C758        C  0.98732147  0.03433935  0.06090143    -0.18600
C759        C  0.94569122  0.05811094  0.11991085    -0.20400
C760        C  0.91510120  0.05167972  0.14999211    -0.13000
C761        C  0.89491132  0.01569119  0.15162482     0.03700
C762        C  0.91323315  0.48285230  0.12133032    -0.25100
H763        H  0.97553849  0.45800978  0.99563157     0.08800
H764        H  0.92958071  0.43987663  0.05236508     0.12400
H765        H  0.49926531  0.06324199  0.05797318     0.12300
H766        H  0.96140775  0.08574115  0.11974040     0.12100
H767        H  0.90798666  0.07447703  0.17273930     0.12600
H768        H  0.89721948  0.45536646  0.12078567     0.14600
C769        C  0.62738551  0.00319990  0.46063820    -0.05500
C770        C  0.61250288  0.00655389  0.41844116    -0.05400
C771        C  0.63650107  0.00209705  0.38163932    -0.23500
C772        C  0.67613188  0.99234636  0.38533817     0.18700
C773        C  0.69193207  0.98791643  0.42650330     0.15900
C774        C  0.67382768  0.48940884  0.45890231    -0.18600
C775        C  0.73572519  0.47043860  0.42511800    -0.20400
C776        C  0.75890685  0.46472478  0.38818530    -0.13000
C777        C  0.74025471  0.97758862  0.35307832     0.03700
C778        C  0.70059494  0.98778566  0.34871336    -0.25100
H779        H  0.58221730  0.01317137  0.41354943     0.08800
H780        H  0.62376808  0.00564659  0.35020967     0.12400
H781        H  0.68890654  0.48618339  0.48878244     0.12300
H782        H  0.74884561  0.46672418  0.45633200     0.12100
H783        H  0.78975577  0.45777034  0.39139573     0.12600
H784        H  0.68928180  0.99336521  0.31694095     0.14600
C785        C  0.63080505  0.00691106  0.04022650    -0.05500
C786        C  0.65023515  0.04298687  0.04846964    -0.05400
C787        C  0.67600984  0.04790928  0.08261067    -0.23500
C788        C  0.68570515  0.01635176  0.10825419     0.18700
C789        C  0.67834968  0.47688889  0.09233750     0.15900
C790        C  0.65196893  0.47389842  0.05829623    -0.18600
C791        C  0.69076304  0.44355528  0.11368637    -0.20400
C792        C  0.71804295  0.44659580  0.14658150    -0.13000
C793        C  0.72431160  0.98810199  0.16546901     0.03700
C794        C  0.71226935  0.02071989  0.14218985    -0.25100
H795        H  0.64411194  0.06858478  0.03020116     0.08800
H796        H  0.68850292  0.07646255  0.08871034     0.12400
H797        H  0.64809240  0.44604270  0.04409490     0.12300
H798        H  0.67934888  0.41513941  0.10496911     0.12100
H799        H  0.72716052  0.42028061  0.16238679     0.12600
H800        H  0.72481764  0.04909396  0.14915059     0.14600
C801        C  0.60679074  0.50230115  0.49989971    -0.02700
O802        O  0.86435079  0.46922031  0.69478064    -0.73200
O803        O  0.79051193  0.44932471  0.79581528    -0.74100
O804        O  0.78190339  0.45519121  0.70495542    -0.62800
O805        O  0.87381660  0.46082464  0.78348397    -0.71200
O806        O  0.85719052  0.01935807  0.79699051    -0.70700
O807        O  0.76850340  0.01716204  0.71105952    -0.62000
O808        O  0.77361746  0.00914942  0.80152065    -0.74500
O809        O  0.85117370  0.02952169  0.70751020    -0.73300
Cu810      Cu  0.82776957  0.45636912  0.74455955     1.04600
Cu811      Cu  0.81224313  0.02094165  0.75468166     1.04300
C812        C  0.86665400  0.00149330  0.68690707     0.93000
C813        C  0.76642934  0.97474703  0.81470497     0.92200
C814        C  0.75801058  0.98452385  0.69478718     0.84300
C815        C  0.87695738  0.98850199  0.80340624     0.90600
C816        C  0.53176852  0.00832768  0.49638619    -0.02700
C817        C  0.56760006  0.04084764  0.50245946    -0.02700
O818        O  0.59606257  0.21018217  0.79787519    -0.73200
O819        O  0.60513928  0.28911937  0.70326711    -0.74100
O820        O  0.60847659  0.29216284  0.79496854    -0.62800
O821        O  0.59271827  0.20844699  0.70680163    -0.71200
O822        O  0.52834997  0.21977115  0.70799645    -0.70700
O823        O  0.54370693  0.29920234  0.80083264    -0.62000
O824        O  0.54102761  0.30080111  0.70953300    -0.74500
O825        O  0.53124180  0.21771928  0.79951078    -0.73300
Cu826      Cu  0.60288443  0.24970635  0.75075660     1.04600
Cu827      Cu  0.53381554  0.25963565  0.75477288     1.04300
C828        C  0.56193925  0.20098339  0.81321072     0.93000
C829        C  0.57455388  0.30691009  0.69107336     0.92200
C830        C  0.57853016  0.30875008  0.81212818     0.84300
C831        C  0.55823680  0.20205579  0.69248302     0.90600
C832        C  0.57077470  0.47184895  0.00171758    -0.02700
C833        C  0.56753759  0.43941540  0.96576382    -0.05500
C834        C  0.53342938  0.41516195  0.96521156    -0.05400
C835        C  0.52737417  0.38722534  0.93337705    -0.23500
C836        C  0.55750492  0.37886987  0.90374087     0.18700
C837        C  0.59460571  0.39692589  0.90849257     0.15900
C838        C  0.59973980  0.42490520  0.94084450    -0.18600
C839        C  0.62642248  0.38563309  0.88197293    -0.20400
C840        C  0.62118220  0.35702169  0.85060401    -0.13000
C841        C  0.58406435  0.33918101  0.84521828     0.03700
C842        C  0.55225654  0.35036007  0.87202578    -0.25100
H843        H  0.51347604  0.41403790  0.99228067     0.08800
H844        H  0.50002541  0.37054506  0.93367061     0.12400
H845        H  0.62958808  0.43177057  0.94875414     0.12300
H846        H  0.65530382  0.39902597  0.88538460     0.12100
H847        H  0.64616501  0.34898654  0.83040125     0.12600
H848        H  0.52367547  0.33624053  0.86895253     0.14600
C849        C  0.56787642  0.44552028  0.54606483    -0.05500
C850        C  0.54796353  0.45554859  0.58529103    -0.05400
C851        C  0.54459789  0.43062488  0.62063909    -0.23500
C852        C  0.56170333  0.39428078  0.61948555     0.18700
C853        C  0.58278274  0.38298944  0.58229694     0.15900
C854        C  0.58513887  0.40781512  0.54655808    -0.18600
C855        C  0.60159693  0.34699081  0.58140300    -0.20400
C856        C  0.59947124  0.32264682  0.61733988    -0.13000
C857        C  0.57779662  0.33353635  0.65424453     0.03700
C858        C  0.55859355  0.36926753  0.65510965    -0.25100
H859        H  0.53451222  0.48254546  0.59154816     0.08800
H860        H  0.02872921  0.44017466  0.64931997     0.12400
H861        H  0.60235816  0.39757276  0.51940453     0.12300
H862        H  0.61806644  0.33773784  0.55303717     0.12100
H863        H  0.61406475  0.29489634  0.61602997     0.12600
H864        H  0.54197764  0.37781151  0.68370082     0.14600
C865        C  0.57604690  0.06790794  0.96315337    -0.05500
C866        C  0.61411769  0.08097250  0.94860520    -0.05400
C867        C  0.61915208  0.10730145  0.91452225    -0.23500
C868        C  0.58644423  0.12454000  0.89631967     0.18700
C869        C  0.54878384  0.11634240  0.91409918     0.15900
C870        C  0.54460750  0.09027497  0.94841018    -0.18600
C871        C  0.51587379  0.13553957  0.89866590    -0.20400
C872        C  0.52025897  0.16246513  0.86536140    -0.13000
C873        C  0.55771079  0.17110410  0.84726649     0.03700
C874        C  0.59083314  0.15176443  0.86280253    -0.25100
H875        H  0.64076857  0.07020477  0.96197569     0.08800
H876        H  0.64872071  0.11470633  0.90305846     0.12400
H877        H  0.51838060  0.09221967  0.96779057     0.12300
H878        H  0.48671174  0.12963661  0.91229085     0.12100
H879        H  0.49425711  0.17688693  0.85414389     0.12600
H880        H  0.61998008  0.15840890  0.84952972     0.14600
C881        C  0.56422008  0.06620141  0.54534554    -0.05500
C882        C  0.56554137  0.05010403  0.58737924    -0.05400
C883        C  0.56248426  0.07264778  0.62473386    -0.23500
C884        C  0.55795760  0.11274230  0.62200191     0.18700
C885        C  0.55590607  0.13010094  0.58115616     0.15500
C886        C  0.55982949  0.10741270  0.54400716    -0.18600
C887        C  0.55103730  0.17038546  0.57777087    -0.20400
C888        C  0.54977261  0.19335176  0.61465155    -0.13000
C889        C  0.55369899  0.17648018  0.65530697     0.03700
C890        C  0.55725193  0.13610015  0.65913690    -0.25100
H891        H  0.57221225  0.02042074  0.59220316     0.08800
H892        H  0.56479948  0.05868616  0.65583270     0.12400
H893        H  0.56007219  0.12358455  0.51451237     0.12300
H894        H  0.54910047  0.18425403  0.54656341     0.12100
H895        H  0.54734180  0.22455409  0.61138448     0.12600
H896        H  0.56044377  0.12318264  0.69068795     0.14600
C897        C  0.91190442  0.98954709  0.83137595    -0.05500
C898        C  0.94335530  0.96378123  0.82484288    -0.05400
C899        C  0.97601605  0.96456013  0.85197497    -0.23500
C900        C  0.97726096  0.99028812  0.88705990     0.18700
C901        C  0.94573127  0.01605311  0.89327043     0.15900
C902        C  0.92188357  0.52089056  0.86139253    -0.18600
C903        C  0.95316395  0.54385207  0.92539348    -0.20400
C904        C  0.98160472  0.54011507  0.95624685    -0.13000
C905        C  0.00754094  0.01222850  0.95527411     0.03700
C906        C  0.00850668  0.98959978  0.91679484    -0.25100
H907        H  0.94275995  0.94313552  0.79857979     0.08800
H908        H  0.99967751  0.94429318  0.84624700     0.12400
H909        H  0.89803690  0.54103883  0.86695966     0.12300
H910        H  0.92947075  0.56417341  0.93088801     0.12100
H911        H  0.97651868  0.55761940  0.98451379     0.12600
H912        H  0.53237680  0.97085274  0.90874979     0.14600
C913        C  0.99652695  0.00468998  0.52969348    -0.05500
C914        C  0.97690457  0.47318524  0.52543436    -0.05400
C915        C  0.94770416  0.46571237  0.55625506    -0.23500
C916        C  0.94164309  0.49201165  0.58944785     0.18700
C917        C  0.95375146  0.02689112  0.58916655     0.15900
C918        C  0.98367974  0.03419626  0.55831916    -0.18600
C919        C  0.94348092  0.05520356  0.61950697    -0.20400
C920        C  0.91461658  0.04700622  0.65094887    -0.13000
C921        C  0.89576701  0.01035803  0.65256063     0.03700
C922        C  0.91252051  0.48458084  0.62077296    -0.25100
H923        H  0.97524126  0.45696043  0.49623202     0.08800
H924        H  0.92865882  0.44040002  0.55284761     0.12400
H925        H  0.49436956  0.06354590  0.55557151     0.12300
H926        H  0.95821092  0.08334482  0.61939289     0.12100
H927        H  0.90764052  0.06910740  0.67458194     0.12600
H928        H  0.89616400  0.45728176  0.62052380     0.14600
C929        C  0.62802572  0.99902428  0.95956709    -0.05500
C930        C  0.61291437  0.00290307  0.91754206    -0.05400
C931        C  0.63652464  0.99796373  0.88059126    -0.23500
C932        C  0.67573081  0.98673140  0.88398632     0.18700
C933        C  0.69141911  0.98075435  0.92496480     0.15900
C934        C  0.67469907  0.49065497  0.95956990    -0.18600
C935        C  0.73698651  0.47143529  0.92666566    -0.20400
C936        C  0.76080809  0.46641913  0.89003024    -0.13000
C937        C  0.73897383  0.97004069  0.85120898     0.03700
C938        C  0.69984372  0.98196890  0.84721482    -0.25100
H939        H  0.58289598  0.01070973  0.91287689     0.08800
H940        H  0.62382433  0.00236937  0.84928223     0.12400
H941        H  0.68936818  0.48681912  0.98956464     0.12300
H942        H  0.74940006  0.46657789  0.95804937     0.12100
H943        H  0.79143334  0.45874748  0.89360513     0.12600
H944        H  0.68875412  0.98879891  0.81564626     0.14600
C945        C  0.62828508  0.00806059  0.54214546    -0.05500
C946        C  0.64564904  0.04407625  0.55469408    -0.05400
C947        C  0.67147375  0.04701987  0.58908624    -0.23500
C948        C  0.68429023  0.01369521  0.60982840     0.18700
C949        C  0.67805883  0.47510067  0.59337319     0.15900
C950        C  0.65164611  0.47172203  0.55908078    -0.18600
C951        C  0.69121969  0.44210947  0.61494619    -0.20400
C952        C  0.71840807  0.44580588  0.64806686    -0.13000
C953        C  0.72692078  0.98236851  0.66164787     0.03700
C954        C  0.71142170  0.01622060  0.64350492    -0.25100
H955        H  0.63847030  0.07087125  0.53913571     0.08800
H956        H  0.68214957  0.07545669  0.59871694     0.12400
H957        H  0.64653672  0.44345447  0.54597528     0.12300
H958        H  0.68064443  0.41342542  0.60606734     0.12100
H959        H  0.72833453  0.41971979  0.66371596     0.12600
H960        H  0.72138351  0.04448003  0.65454945     0.14600
C961        C  0.60133975  0.00297781  0.00157433    -0.02700
O962        O  0.85558456  0.97256517  0.19530472    -0.73200
O963        O  0.78390746  0.95253718  0.29857627    -0.74100
O964        O  0.77340269  0.96008858  0.20843125    -0.62800
O965        O  0.86721433  0.96236084  0.28350170    -0.71200
O966        O  0.86229778  0.51962003  0.29529117    -0.70700
O967        O  0.77528851  0.51797386  0.20751308    -0.62000
O968        O  0.77829353  0.50997944  0.29790719    -0.74500
O969        O  0.85803301  0.53004336  0.20591145    -0.73300
Cu970      Cu  0.82010926  0.95962867  0.24619809     1.04600
Cu971      Cu  0.81807767  0.52156979  0.25204442     1.04300
C972        C  0.87385709  0.50190292  0.18586315     0.93000
C973        C  0.77058779  0.47559985  0.31085294     0.92200
C974        C  0.76474285  0.48528008  0.19145348     0.84300
C975        C  0.88176843  0.48859498  0.30190037     0.90600
C976        C  0.53918770  0.50789706  0.99577237    -0.02700
C977        C  0.57568505  0.53978996  0.00067357    -0.02700
O978        O  0.60418595  0.71173301  0.29947869    -0.73200
O979        O  0.61447631  0.79181040  0.20567043    -0.74100
O980        O  0.61322771  0.79418914  0.29767875    -0.62800
O981        O  0.60580588  0.71018327  0.20800051    -0.71200
O982        O  0.54104676  0.71850784  0.20600793    -0.70700
O983        O  0.54808351  0.79855400  0.30045752    -0.62000
O984        O  0.54969194  0.80034564  0.20913803    -0.74500
O985        O  0.53913087  0.71672744  0.29776984    -0.73300
Cu986      Cu  0.61172478  0.75177032  0.25286063     1.04600
Cu987      Cu  0.54222850  0.75865861  0.25344798     1.04300
C988        C  0.56981577  0.70133422  0.31315688     0.93000
C989        C  0.58355018  0.80848115  0.19252106     0.92200
C990        C  0.58197693  0.80955021  0.31344757     0.84300
C991        C  0.57234446  0.70210953  0.19193981     0.90600
C992        C  0.56393027  0.97288610  0.50308827    -0.02700
C993        C  0.56240939  0.94040245  0.46682894    -0.05500
C994        C  0.52896747  0.91529359  0.46506022    -0.05400
C995        C  0.52465850  0.88698601  0.43315067    -0.23500
C996        C  0.55577068  0.87937627  0.40441128     0.18700
C997        C  0.59206912  0.89873293  0.41013481     0.15900
C998        C  0.59557610  0.92680495  0.44273172    -0.18600
C999        C  0.62480420  0.88863719  0.38435435    -0.20400
C1000       C  0.62136380  0.85980096  0.35292796    -0.13000
C1001       C  0.58517271  0.84038194  0.34667355     0.03700
C1002       C  0.55233096  0.85048378  0.37262592    -0.25100
H1003       H  0.50804590  0.91400014  0.49120831     0.08800
H1004       H  0.49780968  0.86956206  0.43262373     0.12400
H1005       H  0.62502171  0.93454399  0.45144291     0.12300
H1006       H  0.65306313  0.90312237  0.38841394     0.12100
H1007       H  0.64709234  0.85278047  0.33336664     0.12600
H1008       H  0.52441691  0.83526734  0.36883512     0.14600
C1009       C  0.56384513  0.94530270  0.04755721    -0.05500
C1010       C  0.54437596  0.95438810  0.08738662    -0.05400
C1011       C  0.54483122  0.93012047  0.12338713    -0.23500
C1012       C  0.56486809  0.89525642  0.12203169     0.18700
C1013       C  0.58462982  0.88454642  0.08381094     0.15900
C1014       C  0.58296410  0.90846990  0.04739798    -0.18600
C1015       C  0.60626045  0.85010662  0.08259215    -0.20400
C1016       C  0.60744829  0.82625840  0.11891456    -0.13000
C1017       C  0.58636970  0.83609736  0.15656433     0.03700
C1018       C  0.56526847  0.87077858  0.15814000    -0.25100
H1019       H  0.52878900  0.98026871  0.09385951     0.08800
H1020       H  0.02956235  0.93900737  0.15271767     0.12400
H1021       H  0.59957286  0.89889381  0.01949241     0.12300
H1022       H  0.62199287  0.84147125  0.05349600     0.12100
H1023       H  0.62351589  0.79934321  0.11708494     0.12600
H1024       H  0.54911117  0.87851541  0.18733396     0.14600
C1025       C  0.58239877  0.56791966  0.46246112    -0.05500
C1026       C  0.62059647  0.58033855  0.44777507    -0.05400
C1027       C  0.62585007  0.60642119  0.41351779    -0.23500
C1028       C  0.59333656  0.62444218  0.39583318     0.18700
C1029       C  0.55574047  0.61734605  0.41433605     0.15900
C1030       C  0.55132120  0.59105033  0.44832079    -0.18600
C1031       C  0.52323051  0.63781211  0.39992477    -0.20400
C1032       C  0.52788541  0.66461667  0.36656084    -0.13000
C1033       C  0.56522361  0.67178071  0.34740582     0.03700
C1034       C  0.59797305  0.65145656  0.36220719    -0.25100
H1035       H  0.64709657  0.56936925  0.46134766     0.08800
H1036       H  0.65544578  0.61318918  0.40167345     0.12400
H1037       H  0.52537010  0.59343640  0.46814698     0.12300
H1038       H  0.49418469  0.63296178  0.41434696     0.12100
H1039       H  0.50223118  0.68010159  0.35612938     0.12600
H1040       H  0.62703933  0.65710824  0.34819052     0.14600
C1041       C  0.57493561  0.56544489  0.04378655    -0.05500
C1042       C  0.57646248  0.54934364  0.08583680    -0.05400
C1043       C  0.57522112  0.57201920  0.12330785    -0.23500
C1044       C  0.57287384  0.61238582  0.12074927     0.18700
C1045       C  0.57231065  0.62987721  0.07986813     0.15500
C1046       C  0.57433908  0.60696731  0.04262800    -0.18600
C1047       C  0.57030760  0.67043940  0.07648928    -0.20400
C1048       C  0.56917525  0.69342406  0.11339191    -0.13000
C1049       C  0.57051968  0.67641026  0.15425939     0.03700
C1050       C  0.57239400  0.63578518  0.15803969    -0.25100
H1051       H  0.58174609  0.51937798  0.09047738     0.08800
H1052       H  0.57696760  0.55785051  0.15435507     0.12400
H1053       H  0.57639000  0.62318095  0.01314110     0.12300
H1054       H  0.56980609  0.68445484  0.04525471     0.12100
H1055       H  0.56810540  0.72471154  0.11005372     0.12600
H1056       H  0.57375636  0.62262696  0.18967948     0.14600
C1057       C  0.91678775  0.48929458  0.32983745    -0.05500
C1058       C  0.94651055  0.46133005  0.32523200    -0.05400
C1059       C  0.97939813  0.46190136  0.35201337    -0.23500
C1060       C  0.98246542  0.48954125  0.38510631     0.18700
C1061       C  0.95250088  0.51723245  0.38973192     0.15900
C1062       C  0.91691875  0.02199670  0.36029047    -0.18600
C1063       C  0.94762145  0.04482576  0.42428024    -0.20400
C1064       C  0.97517291  0.04051701  0.45583396    -0.13000
C1065       C  0.01387036  0.51256583  0.45235188     0.03700
C1066       C  0.01385217  0.48882215  0.41465362    -0.25100
H1067       H  0.94443730  0.43910876  0.30069971     0.08800
H1068       H  0.00168134  0.43993877  0.34775734     0.12400
H1069       H  0.89366237  0.04291800  0.36522315     0.12300
H1070       H  0.92431901  0.06570488  0.42907950     0.12100
H1071       H  0.97004036  0.05843232  0.48374796     0.12600
H1072       H  0.53699457  0.46911159  0.40709446     0.14600
C1073       C  0.00471527  0.50467518  0.02978075    -0.05500
C1074       C  0.97194319  0.97274216  0.02931506    -0.05400
C1075       C  0.94196847  0.96603674  0.05947150    -0.23500
C1076       C  0.93470789  0.99336344  0.09133142     0.18700
C1077       C  0.96331607  0.52662051  0.09041380     0.15900
C1078       C  0.99324303  0.53389119  0.05942673    -0.18600
C1079       C  0.95367196  0.55455604  0.12143884    -0.20400
C1080       C  0.92412477  0.54661000  0.15227194    -0.13000
C1081       C  0.90413075  0.51051400  0.15270066     0.03700
C1082       C  0.90452071  0.98686237  0.12177903    -0.25100
H1083       H  0.97060993  0.95592454  0.00045098     0.08800
H1084       H  0.92301963  0.94063091  0.05628588     0.12400
H1085       H  0.50509490  0.56290073  0.05745783     0.12300
H1086       H  0.96914134  0.58229911  0.12208442     0.12100
H1087       H  0.91736775  0.56847966  0.17624207     0.12600
H1088       H  0.88839428  0.95943187  0.12209760     0.14600
C1089       C  0.63302039  0.49868379  0.45736105    -0.05500
C1090       C  0.61724139  0.50203299  0.41555381    -0.05400
C1091       C  0.64023101  0.49653565  0.37815995    -0.23500
C1092       C  0.67981702  0.48629373  0.38093121     0.18700
C1093       C  0.69641612  0.48201356  0.42175605     0.15900
C1094       C  0.66847348  0.99509381  0.46314596    -0.18600
C1095       C  0.73124798  0.97638906  0.43060276    -0.20400
C1096       C  0.75516682  0.97096852  0.39403844    -0.13000
C1097       C  0.74329449  0.47101973  0.34753105     0.03700
C1098       C  0.70356859  0.48128033  0.34379445    -0.25100
H1099       H  0.58717095  0.50982178  0.41144229     0.08800
H1100       H  0.62685798  0.50004477  0.34705062     0.12400
H1101       H  0.68326326  0.99287032  0.49327731     0.12300
H1102       H  0.74372791  0.97233384  0.46209541     0.12100
H1103       H  0.78590963  0.96384753  0.39779419     0.12600
H1104       H  0.69175849  0.48674087  0.31222067     0.14600
C1105       C  0.63647212  0.50691436  0.03819914    -0.05500
C1106       C  0.65609452  0.54263342  0.04740947    -0.05400
C1107       C  0.68299773  0.54614685  0.08067370    -0.23500
C1108       C  0.69365787  0.51349776  0.10410440     0.18700
C1109       C  0.67052524  0.97931229  0.09789831     0.15900
C1110       C  0.64541676  0.97480087  0.06280083    -0.18600
C1111       C  0.68177356  0.94700607  0.12181998    -0.20400
C1112       C  0.70823633  0.95139083  0.15533350    -0.13000
C1113       C  0.73373136  0.48298064  0.15857821     0.03700
C1114       C  0.72109809  0.51647606  0.13728679    -0.25100
H1115       H  0.64989457  0.56872709  0.02994091     0.08800
H1116       H  0.69579343  0.57439739  0.08764386     0.12400
H1117       H  0.64149617  0.94629760  0.05040037     0.12300
H1118       H  0.67032905  0.91829325  0.11441548     0.12100
H1119       H  0.71679675  0.92573495  0.17277985     0.12600
H1120       H  0.73342258  0.54462827  0.14560257     0.14600
C1121       C  0.59986117  0.00573177  0.50237262    -0.02700
O1122       O  0.85751843  0.96626454  0.69632851    -0.73200
O1123       O  0.78333164  0.94558590  0.79722814    -0.74100
O1124       O  0.77500760  0.95340531  0.70617258    -0.62800
O1125       O  0.86680572  0.95662237  0.78559464    -0.71200
O1126       O  0.86420055  0.52373230  0.79369218    -0.70700
O1127       O  0.77477147  0.51895932  0.70839155    -0.62000
O1128       O  0.78042913  0.51288304  0.79900413    -0.74500
O1129       O  0.85754240  0.53265067  0.70451584    -0.73300
Cu1130     Cu  0.82079408  0.95316375  0.74611330     1.04600
Cu1131     Cu  0.81877805  0.52424596  0.75175424     1.04300
C1132       C  0.87362023  0.50435367  0.68503858     0.93000
C1133       C  0.77342547  0.47862913  0.81275390     0.92200
C1134       C  0.76443974  0.48584683  0.69308289     0.84300
C1135       C  0.88419767  0.49303195  0.80031720     0.90600
C1136       C  0.53885762  0.50675499  0.49549755    -0.02700
C1137       C  0.57561562  0.53832148  0.50093242    -0.02700
O1138       O  0.59977445  0.71330401  0.79837987    -0.73200
O1139       O  0.60784850  0.79155867  0.70266071    -0.74100
O1140       O  0.60736750  0.79567735  0.79428973    -0.62800
O1141       O  0.60061571  0.70993718  0.70713001    -0.71200
O1142       O  0.53575821  0.71762193  0.70521331    -0.70700
O1143       O  0.54219267  0.79938071  0.79803968    -0.62000
O1144       O  0.54302340  0.79964549  0.70659444    -0.74500
O1145       O  0.53461526  0.71718801  0.79717409    -0.73300
Cu1146     Cu  0.60616532  0.75246828  0.75073420     1.04600
Cu1147     Cu  0.53658681  0.75854076  0.75187600     1.04300
C1148       C  0.56569879  0.70250722  0.81255849     0.93000
C1149       C  0.57670344  0.80784489  0.68953989     0.92200
C1150       C  0.57616317  0.81091960  0.81027095     0.84300
C1151       C  0.56718770  0.70128933  0.69138021     0.90600
C1152       C  0.56482188  0.97063637  0.00388475    -0.02700
C1153       C  0.56172019  0.93820034  0.96768852    -0.05500
C1154       C  0.52773326  0.91381738  0.96610118    -0.05400
C1155       C  0.52189178  0.88689801  0.93297199    -0.23500
C1156       C  0.55216685  0.87968480  0.90296263     0.18700
C1157       C  0.58913023  0.89767646  0.90887718     0.15900
C1158       C  0.59405244  0.92408076  0.94279274    -0.18600
C1159       C  0.62114586  0.88785091  0.88197957    -0.20400
C1160       C  0.61647770  0.86033308  0.84944673    -0.13000
C1161       C  0.57979238  0.84184162  0.84327670     0.03700
C1162       C  0.54746593  0.85205984  0.86998552    -0.25100
H1163       H  0.50754471  0.91194704  0.99300052     0.08800
H1164       H  0.49461814  0.87015055  0.93239871     0.12400
H1165       H  0.62379327  0.93015794  0.95170222     0.12300
H1166       H  0.64986174  0.90135520  0.88619353     0.12100
H1167       H  0.64181282  0.85325443  0.82929502     0.12600
H1168       H  0.51917036  0.83756931  0.86618687     0.14600
C1169       C  0.56223782  0.94742550  0.54668680    -0.05500
C1170       C  0.54048782  0.95532052  0.58543933    -0.05400
C1171       C  0.53819951  0.92962756  0.62021697    -0.23500
C1172       C  0.55864774  0.89499200  0.61915756     0.18700
C1173       C  0.58169900  0.88609078  0.58255322     0.15900
C1174       C  0.58225188  0.91112555  0.54702278    -0.18600
C1175       C  0.60426417  0.85226962  0.58200726    -0.20400
C1176       C  0.60353355  0.82744239  0.61756135    -0.13000
C1177       C  0.57940373  0.83551051  0.65358036     0.03700
C1178       C  0.55685224  0.86931467  0.65425020    -0.25100
H1179       H  0.52497759  0.98120608  0.59194390     0.08800
H1180       H  0.02076112  0.93737585  0.64851909     0.12400
H1181       H  0.60034525  0.90232921  0.51988524     0.12300
H1182       H  0.62253974  0.84507947  0.55418163     0.12100
H1183       H  0.62093058  0.80133149  0.61646147     0.12600
H1184       H  0.53846753  0.87582026  0.68225219     0.14600
C1185       C  0.58173440  0.56945739  0.96210591    -0.05500
C1186       C  0.61965315  0.58239714  0.94707873    -0.05400
C1187       C  0.62427472  0.60889761  0.91306715    -0.23500
C1188       C  0.59134066  0.62653922  0.89574238     0.18700
C1189       C  0.55398620  0.61878526  0.91453380     0.15900
C1190       C  0.55030314  0.59256451  0.94872916    -0.18600
C1191       C  0.52094777  0.63841783  0.90007970    -0.20400
C1192       C  0.52484201  0.66511038  0.86647844    -0.13000
C1193       C  0.56196082  0.67316513  0.84722718     0.03700
C1194       C  0.59525713  0.65367234  0.86208269    -0.25100
H1195       H  0.64638087  0.57166636  0.96040815     0.08800
H1196       H  0.65369067  0.61616805  0.90102815     0.12400
H1197       H  0.52454864  0.59464248  0.96896657     0.12300
H1198       H  0.49204520  0.63290661  0.91456835     0.12100
H1199       H  0.49875285  0.67980614  0.85592394     0.12600
H1200       H  0.62415403  0.65991931  0.84793623     0.14600
C1201       C  0.57471973  0.56397780  0.54416910    -0.05500
C1202       C  0.57727207  0.54820737  0.58635671    -0.05400
C1203       C  0.57615550  0.57109344  0.62368675    -0.23500
C1204       C  0.57169753  0.61122522  0.62098087     0.18700
C1205       C  0.56913465  0.62831548  0.58007248     0.15500
C1206       C  0.57231283  0.60540767  0.54293701    -0.18600
C1207       C  0.56381617  0.66851168  0.57652172    -0.20400
C1208       C  0.56159871  0.69158277  0.61328626    -0.13000
C1209       C  0.56559523  0.67511885  0.65413145     0.03700
C1210       C  0.57076546  0.63483795  0.65809230    -0.25100
H1211       H  0.58378306  0.51852598  0.59136784     0.08800
H1212       H  0.57929509  0.55725312  0.65474715     0.12400
H1213       H  0.57342601  0.62165127  0.51350897     0.12300
H1214       H  0.56144244  0.68217066  0.54525699     0.12100
H1215       H  0.55793152  0.72262127  0.60980383     0.12600
H1216       H  0.57408981  0.62211358  0.68971880     0.14600
C1217       C  0.91958197  0.49434055  0.82755963    -0.05500
C1218       C  0.95069976  0.46817830  0.82095267    -0.05400
C1219       C  0.98312545  0.46814945  0.84839171    -0.23500
C1220       C  0.98442681  0.49345265  0.88384142     0.18700
C1221       C  0.95342355  0.51988677  0.88982247     0.15900
C1222       C  0.91386442  0.01617616  0.86522071    -0.18600
C1223       C  0.94562323  0.04059940  0.92836913    -0.20400
C1224       C  0.97476138  0.03800572  0.95862881    -0.13000
C1225       C  0.01406657  0.51398523  0.95290556     0.03700
C1226       C  0.01505512  0.49157555  0.91425247    -0.25100
H1227       H  0.94985513  0.44761476  0.79461428     0.08800
H1228       H  0.00640603  0.44743801  0.84276093     0.12400
H1229       H  0.88975583  0.03602526  0.87078852     0.12300
H1230       H  0.92168046  0.06063629  0.93388612     0.12100
H1231       H  0.97004877  0.05623982  0.98637176     0.12600
H1232       H  0.53836249  0.47201374  0.90666108     0.14600
C1233       C  0.00424040  0.50430895  0.52926754    -0.05500
C1234       C  0.96988725  0.97297519  0.52545148    -0.05400
C1235       C  0.94058442  0.96469511  0.55615850    -0.23500
C1236       C  0.93356841  0.99079771  0.58945544     0.18700
C1237       C  0.96312600  0.52742382  0.58948151     0.15900
C1238       C  0.99297067  0.53406042  0.55832014    -0.18600
C1239       C  0.95398654  0.55571960  0.62030118    -0.20400
C1240       C  0.92435414  0.54839224  0.65121742    -0.13000
C1241       C  0.90378044  0.51261167  0.65178785     0.03700
C1242       C  0.90502535  0.98248296  0.62135493    -0.25100
H1243       H  0.96894148  0.95676533  0.49613565     0.08800
H1244       H  0.92232966  0.93883836  0.55270226     0.12400
H1245       H  0.50493194  0.56296993  0.55583034     0.12300
H1246       H  0.96992710  0.58322121  0.62073655     0.12100
H1247       H  0.91798983  0.57043153  0.67512735     0.12600
H1248       H  0.88977995  0.95457942  0.62160624     0.14600
C1249       C  0.63399400  0.50048077  0.95741377    -0.05500
C1250       C  0.61890161  0.50427225  0.91538773    -0.05400
C1251       C  0.64265862  0.49967371  0.87840398    -0.23500
C1252       C  0.68214653  0.48925759  0.88180507     0.18700
C1253       C  0.69790148  0.48370693  0.92279960     0.15900
C1254       C  0.66845028  0.98826600  0.96181659    -0.18600
C1255       C  0.73009818  0.96729373  0.92864897    -0.20400
C1256       C  0.75364912  0.96168658  0.89187529    -0.13000
C1257       C  0.74600042  0.47417458  0.84930187     0.03700
C1258       C  0.70654777  0.48511674  0.84510851    -0.25100
H1259       H  0.58887534  0.51202568  0.91078571     0.08800
H1260       H  0.62993933  0.50395198  0.84708348     0.12400
H1261       H  0.68271038  0.98361684  0.99195148     0.12300
H1262       H  0.74244117  0.96201354  0.95997984     0.12100
H1263       H  0.78406265  0.95323326  0.89531414     0.12600
H1264       H  0.69537673  0.49154371  0.81347378     0.14600
C1265       C  0.63636847  0.50472894  0.53844343    -0.05500
C1266       C  0.65578912  0.54051464  0.54780193    -0.05400
C1267       C  0.68184333  0.54440500  0.58174775    -0.23500
C1268       C  0.69256676  0.51199168  0.60543552     0.18700
C1269       C  0.67178872  0.97713687  0.59456899     0.15900
C1270       C  0.64553045  0.97478449  0.56013603    -0.18600
C1271       C  0.68702353  0.94343850  0.61278864    -0.20400
C1272       C  0.71420687  0.94602674  0.64594671    -0.13000
C1273       C  0.73305796  0.48256277  0.66041498     0.03700
C1274       C  0.71946485  0.51564638  0.63913591    -0.25100
H1275       H  0.64953969  0.56661419  0.53040635     0.08800
H1276       H  0.69403419  0.57285259  0.58901260     0.12400
H1277       H  0.64286914  0.94750290  0.54400346     0.12300
H1278       H  0.67803455  0.91503320  0.60126378     0.12100
H1279       H  0.72565328  0.91940321  0.65896653     0.12600
H1280       H  0.73091147  0.54410614  0.64764173     0.14600
loop_ 
_geom_bond_atom_site_label_1 
_geom_bond_atom_site_label_2 
_geom_bond_distance 
_geom_bond_site_symmetry_2 
_ccdc_geom_bond_type 
C1          C337   1.642   1_556  S
C1          C192   1.650   1_556  S
C1          C609   1.582       .  S
C1          C465   1.576   1_556  S
O2          Cu10   2.011       .  S
O2          C332   1.281       .  A
O3          Cu10   2.024       .  S
O3          C333   1.280       .  A
O4          Cu10   1.997       .  S
O4          C334   1.276       .  A
O5          Cu10   2.002       .  S
O5          C335   1.276       .  A
O6          Cu11   2.033       .  S
O6           C15   1.284   1_545  A
O7          Cu11   2.034       .  S
O7           C14   1.282   1_545  A
O8          Cu11   1.980       .  S
O8           C13   1.272   1_545  A
O9          Cu11   1.971       .  S
O9           C12   1.272       .  A
Cu10       Cu331   2.372       .  S
Cu11       Cu330   2.373   1_545  S
C12         O322   1.281   1_545  A
C12         C121   1.467       .  S
C13         O323   1.280       .  A
C13         C137   1.462       .  S
C14         O324   1.276       .  A
C14         C153   1.483       .  S
C15         O325   1.274       .  A
C15          C97   1.480       .  S
C16          C17   1.651   1_556  S
C16         C512   1.666   1_546  S
C16         C905   1.612       .  S
C16         C753   1.564   1_456  S
C17         C321   1.642       .  S
C17          C81   1.600       .  S
C17         C225   1.584   1_554  S
O18         Cu26   2.013       .  S
O18          C28   1.278       .  A
O19         Cu26   2.012       .  S
O19          C29   1.278       .  A
O20         Cu26   2.013       .  S
O20          C30   1.279       .  A
O21         Cu26   2.002       .  S
O21          C31   1.276       .  A
O22         Cu27   2.008       .  S
O22          C31   1.277       .  A
O23         Cu27   2.008       .  S
O23          C30   1.278       .  A
O24         Cu27   1.996       .  S
O24          C29   1.276       .  A
O25         Cu27   1.996       .  S
O25          C28   1.278       .  A
Cu26        Cu27   2.373       .  S
C28          C73   1.479       .  S
C29          C57   1.467       .  S
C30          C41   1.481       .  S
C31          C89   1.461       .  S
C32         C161   1.648       .  S
C32         C496   1.666       .  S
C32          C33   1.585       .  S
C32         C209   1.613       .  S
C33          C34   1.418       .  A
C33          C38   1.420       .  A
C34          C35   1.399       .  A
C34          H43   1.067       .  S
C35          C36   1.396       .  A
C35          H44   1.084       .  S
C36          C42   1.405       .  A
C36          C37   1.406       .  A
C37          C39   1.402       .  A
C37          C38   1.403       .  A
C38          H45   1.072       .  S
C39          C40   1.397       .  A
C39          H46   1.084       .  S
C40          C41   1.406       .  A
C40          H47   1.083       .  S
C41          C42   1.408       .  A
C42          H48   1.084       .  S
C49         C192   1.615       .  S
C49          C50   1.426       .  A
C49          C54   1.435       .  A
C50          C51   1.395       .  A
C50          H59   1.057       .  S
C51          C52   1.388       .  A
C51         H700   1.085       .  S
C52          C58   1.401       .  A
C52          C53   1.402       .  A
C53          C55   1.405       .  A
C53          C54   1.401       .  A
C54          H61   1.078       .  S
C55          C56   1.398       .  A
C55          H62   1.084       .  S
C56          C57   1.402       .  A
C56          H63   1.083       .  S
C57          C58   1.401       .  A
C58          H64   1.085       .  S
H60         C691   1.085       .  S
C65         C177   1.586       .  S
C65          C66   1.425       .  A
C65          C70   1.408       .  A
C66          C67   1.402       .  A
C66          H75   1.075       .  S
C67          C68   1.398       .  A
C67          H76   1.083       .  S
C68          C74   1.406       .  A
C68          C69   1.405       .  A
C69          C71   1.399       .  A
C69          C70   1.394       .  A
C70          H77   1.063       .  S
C71          C72   1.391       .  A
C71          H78   1.084   1_455  S
C72          C73   1.406       .  A
C72          H79   1.083   1_455  S
C73          C74   1.410       .  A
C74          H80   1.084       .  S
C81          C82   1.421       .  A
C81          C86   1.429       .  A
C82          C83   1.398       .  A
C82          H91   1.058       .  S
C83          C84   1.393       .  A
C83          H92   1.084       .  S
C84          C90   1.407       .  A
C84          C85   1.406       .  A
C85          C87   1.403       .  A
C85          C86   1.399       .  A
C86          H93   1.072       .  S
C87          C88   1.392       .  A
C87          H94   1.084       .  S
C88          C89   1.399       .  A
C88          H95   1.084       .  S
C89          C90   1.403       .  A
C90          H96   1.084       .  S
C97          C98   1.410       .  A
C97         C422   1.393   1_565  A
C98          C99   1.407       .  A
C98         H107   1.083       .  S
C99         C100   1.407       .  A
C99         H108   1.084       .  S
C100        C106   1.421       .  A
C100        C101   1.410   1_565  A
C101        C423   1.377       .  A
C101        C422   1.398       .  A
C102        C417   1.398       .  A
C102        C421   1.404       .  A
C102        H109   1.085       .  S
C103        C104   1.384       .  A
C103        C421   1.381       .  A
C103        H110   1.084       .  S
C104        C425   1.435       .  A
C104        H111   1.077       .  S
C105        C816   1.606       .  S
C105        C106   1.428   1_545  A
C105        C424   1.433       .  A
C106        H752   1.069       .  S
H112        C746   1.069       .  S
C113        C656   1.564   1_554  S
C113        C118   1.420       .  A
C113        C434   1.414   1_545  A
C114        C115   1.385       .  A
C114        C433   1.415       .  A
C114        H123   1.070   1_554  S
C115        C116   1.387       .  A
C115        H124   1.084       .  S
C116        C122   1.395       .  A
C116        C437   1.412       .  A
C117        C119   1.401       .  A
C117        C118   1.403       .  A
C117        C436   1.410   1_545  A
C118        H765   1.072       .  S
C119        C120   1.396       .  A
C119        H126   1.084       .  S
C120        C121   1.408       .  A
C120        H127   1.083       .  S
C121        C442   1.396   1_545  A
C122        C441   1.396       .  A
C122        H128   1.085       .  S
H125        C758   1.072       .  S
C129        C481   1.584       .  S
C129        C130   1.420       .  A
C129        C454   1.429   1_545  A
C130        C131   1.399       .  A
C130        H139   1.070       .  S
C131        C132   1.398   1_545  A
C131        H140   1.083       .  S
C132        C138   1.404       .  A
C132        C133   1.406       .  A
C133        C455   1.406       .  A
C133        C454   1.399       .  A
C134        C449   1.427       .  A
C134        C453   1.397       .  A
C134        H141   1.076       .  S
C135        C136   1.392       .  A
C135        C453   1.403       .  A
C135        H142   1.084       .  S
C136        C457   1.398       .  A
C136        H143   1.084       .  S
C137        C138   1.405       .  A
C137        C456   1.399       .  A
C138        H144   1.084       .  S
C145        C321   1.583       .  S
C145        C146   1.424       .  A
C145        C470   1.411   1_545  A
C146        C147   1.398       .  A
C146        H155   1.074       .  S
C147        C148   1.395       .  A
C147        H156   1.084       .  S
C148        C154   1.408       .  A
C148        C469   1.409   1_545  A
C149        C151   1.400       .  A
C149        C150   1.403       .  A
C149        C468   1.408       .  A
C150        C465   1.411       .  A
C150        H157   1.064       .  S
C151        C152   1.396       .  A
C151        H158   1.084       .  S
C152        C473   1.408       .  A
C152        H159   1.083       .  S
C153        C154   1.406   1_565  A
C153        C472   1.408       .  A
C154        H160   1.084       .  S
C161        C497   1.642       .  S
C161        C449   1.583       .  S
C161        C625   1.580       .  S
O162       Cu170   2.006       .  S
O162        C492   1.280       .  A
O163       Cu170   2.023       .  S
O163        C493   1.279       .  A
O164       Cu170   2.004       .  S
O164        C494   1.277       .  A
O165       Cu170   2.000       .  S
O165        C495   1.275       .  A
O166       Cu171   2.035       .  S
O166        C175   1.283   1_545  A
O167       Cu171   2.033       .  S
O167        C174   1.282   1_545  A
O168       Cu171   1.974       .  S
O168        C173   1.272   1_545  A
O169       Cu171   1.970       .  S
O169        C172   1.272       .  A
Cu170      Cu491   2.373       .  S
Cu171      Cu490   2.372   1_545  S
C172        O482   1.280   1_545  A
C172        C281   1.467       .  S
C173        O483   1.279       .  A
C173        C297   1.459       .  S
C174        O484   1.278       .  A
C174        C313   1.490       .  S
C175        O485   1.276       .  A
C175        C257   1.485       .  S
C176        C177   1.654       .  S
C176        C352   1.665   1_545  S
C176        C745   1.606       .  S
C176        C913   1.567   1_455  S
C177        C481   1.643       .  S
C177        C241   1.596       .  S
O178       Cu186   2.005       .  S
O178        C188   1.277       .  A
O179       Cu186   2.003       .  S
O179        C189   1.277       .  A
O180       Cu186   2.016       .  S
O180        C190   1.279       .  A
O181       Cu186   2.003       .  S
O181        C191   1.276       .  A
O182       Cu187   2.009       .  S
O182        C191   1.277       .  A
O183       Cu187   2.006       .  S
O183        C190   1.278       .  A
O184       Cu187   2.004       .  S
O184        C189   1.277       .  A
O185       Cu187   2.003       .  S
O185        C188   1.278       .  A
Cu186      Cu187   2.373       .  S
C188        C233   1.479       .  S
C189        C217   1.467       .  S
C190        C201   1.481       .  S
C191        C249   1.462       .  S
C192        C336   1.665   1_554  S
C192        C193   1.584   1_554  S
C193        C194   1.417       .  A
C193        C198   1.422       .  A
C194        C195   1.396       .  A
C194        H203   1.068       .  S
C195        C196   1.394       .  A
C195        H204   1.084       .  S
C196        C202   1.403       .  A
C196        C197   1.406       .  A
C197        C199   1.403       .  A
C197        C198   1.404       .  A
C198        H205   1.070       .  S
C199        C200   1.398       .  A
C199        H206   1.084       .  S
C200        C201   1.406       .  A
C200        H207   1.083       .  S
C201        C202   1.407       .  A
C202        H208   1.084       .  S
C209        C210   1.425       .  A
C209        C214   1.433       .  A
C210        C211   1.395       .  A
C210        H219   1.058       .  S
C211        C212   1.388       .  A
C211        H860   1.085       .  S
C212        C218   1.403       .  A
C212        C213   1.403       .  A
C213        C215   1.403       .  A
C213        C214   1.401       .  A
C214        H221   1.078       .  S
C215        C216   1.396       .  A
C215        H222   1.084       .  S
C216        C217   1.403       .  A
C216        H223   1.083       .  S
C217        C218   1.401       .  A
C218        H224   1.085       .  S
H220        C851   1.085       .  S
C225        C226   1.425       .  A
C225        C230   1.409       .  A
C226        C227   1.399       .  A
C226        H235   1.074       .  S
C227        C228   1.396       .  A
C227        H236   1.084       .  S
C228        C234   1.405       .  A
C228        C229   1.405       .  A
C229        C231   1.399       .  A
C229        C230   1.397       .  A
C230        H237   1.066       .  S
C231        C232   1.393       .  A
C231        H238   1.084   1_455  S
C232        C233   1.406       .  A
C232        H239   1.083   1_455  S
C233        C234   1.409       .  A
C234        H240   1.084       .  S
C241        C242   1.420       .  A
C241        C246   1.430       .  A
C242        C243   1.399       .  A
C242        H251   1.062       .  S
C243        C244   1.395       .  A
C243        H252   1.084       .  S
C244        C250   1.407       .  A
C244        C245   1.406       .  A
C245        C247   1.404       .  A
C245        C246   1.399       .  A
C246        H253   1.072       .  S
C247        C248   1.393       .  A
C247        H254   1.084       .  S
C248        C249   1.399       .  A
C248        H255   1.084       .  S
C249        C250   1.403       .  A
C250        H256   1.084       .  S
C257        C258   1.409       .  A
C257        C582   1.397   1_565  A
C258        C259   1.406       .  A
C258        H267   1.083       .  S
C259        C260   1.406       .  A
C259        H268   1.084       .  S
C260        C266   1.421       .  A
C260        C261   1.410   1_565  A
C261        C583   1.380       .  A
C261        C582   1.403       .  A
C262        C577   1.396       .  A
C262        C581   1.403       .  A
C262        H269   1.085       .  S
C263        C581   1.379       .  A
C263        C264   1.382       .  A
C263        H270   1.085       .  S
C264        C585   1.435       .  A
C264        H271   1.078       .  S
C265        C656   1.612       .  S
C265        C584   1.435       .  A
C265        C266   1.427   1_545  A
C266        H912   1.069       .  S
H272        C906   1.069       .  S
C273        C816   1.567       .  S
C273        C594   1.415   1_545  A
C273        C278   1.418       .  A
C274        C593   1.414       .  A
C274        C275   1.384       .  A
C274        H283   1.068       .  S
C275        C276   1.387       .  A
C275        H284   1.084       .  S
C276        C282   1.392       .  A
C276        C597   1.412       .  A
C277        C596   1.410   1_545  A
C277        C279   1.399       .  A
C277        C278   1.401       .  A
C278        H925   1.072       .  S
C279        C280   1.393       .  A
C279        H286   1.084       .  S
C280        C281   1.407       .  A
C280        H287   1.083       .  S
C281        C602   1.399   1_545  A
C282        C601   1.395       .  A
C282        H288   1.085       .  S
H285        C918   1.072       .  S
C289        C321   1.579   1_566  S
C289        C290   1.419   1_565  A
C289        C614   1.429       .  A
C290        C291   1.397   1_545  A
C290        H299   1.070       .  S
C291        C292   1.397       .  A
C291        H300   1.083   1_565  S
C292        C298   1.401       .  A
C292        C293   1.406       .  A
C293        C615   1.405       .  A
C293        C614   1.397       .  A
C294        C609   1.429       .  A
C294        C613   1.396       .  A
C294        H301   1.075       .  S
C295        C613   1.405       .  A
C295        C296   1.393       .  A
C295        H302   1.084       .  S
C296        C617   1.398       .  A
C296        H303   1.084       .  S
C297        C616   1.399       .  A
C297        C298   1.403       .  A
C298        H304   1.085       .  S
C305        C481   1.585       .  S
C305        C306   1.424       .  A
C305        C630   1.415   1_545  A
C306        C307   1.399       .  A
C306        H315   1.075       .  S
C307        C308   1.396       .  A
C307        H316   1.084       .  S
C308        C314   1.410       .  A
C308        C629   1.408   1_545  A
C309        C628   1.410       .  A
C309        C311   1.402       .  A
C309        C310   1.410       .  A
C310        C625   1.415       .  A
C310        H317   1.069       .  S
C311        C312   1.401       .  A
C311        H318   1.084       .  S
C312        C633   1.410       .  A
C312        H319   1.083       .  S
C313        C632   1.409       .  A
C313        C314   1.409   1_565  A
C314        H320   1.084       .  S
C321        C512   1.654   1_545  S
O322       Cu330   2.011       .  S
O323       Cu330   2.029       .  S
O324       Cu330   1.992       .  S
O325       Cu330   1.995       .  S
O326       Cu331   2.037       .  S
O326        C335   1.283       .  A
O327       Cu331   2.029       .  S
O327        C334   1.281       .  A
O328       Cu331   1.977       .  S
O328        C333   1.272       .  A
O329       Cu331   1.969       .  S
O329        C332   1.272       .  A
C332        C441   1.466       .  S
C333        C457   1.459       .  S
C334        C473   1.483       .  S
C335        C417   1.486       .  S
C336        C337   1.652   1_556  S
C336       C1225   1.611       .  S
C336       C1073   1.561   1_556  S
C337        C545   1.582   1_554  S
C337        C401   1.605       .  S
O338       Cu346   2.009       .  S
O338        C348   1.278       .  A
O339       Cu346   2.012       .  S
O339        C349   1.278       .  A
O340       Cu346   2.019       .  S
O340        C350   1.280       .  A
O341       Cu346   2.010       .  S
O341        C351   1.277       .  A
O342       Cu347   2.022       .  S
O342        C351   1.279       .  A
O343       Cu347   2.016       .  S
O343        C350   1.279       .  A
O344       Cu347   1.998       .  S
O344        C349   1.276       .  A
O345       Cu347   1.995       .  S
O345        C348   1.277       .  A
Cu346      Cu347   2.372       .  S
C348        C393   1.476       .  S
C349        C377   1.467       .  S
C350        C361   1.486       .  S
C351        C409   1.470       .  S
C352        C481   1.650   1_565  S
C352        C353   1.589       .  S
C352        C529   1.612       .  S
C353        C354   1.418       .  A
C353        C358   1.423       .  A
C354        C355   1.399       .  A
C354        H363   1.067       .  S
C355        C356   1.395       .  A
C355        H364   1.084   1_455  S
C356        C362   1.408       .  A
C356        C357   1.406       .  A
C357        C359   1.403       .  A
C357        C358   1.406       .  A
C358        H365   1.070       .  S
C359        C360   1.398       .  A
C359        H366   1.084       .  S
C360        C361   1.406       .  A
C360        H367   1.083       .  S
C361        C362   1.409       .  A
C362        H368   1.084       .  S
C369        C512   1.612       .  S
C369        C370   1.427       .  A
C369        C374   1.434       .  A
C370        C371   1.396       .  A
C370        H379   1.060       .  S
C371        C372   1.389       .  A
C371       H1020   1.085       .  S
C372        C378   1.403       .  A
C372        C373   1.403       .  A
C373        C375   1.404       .  A
C373        C374   1.401       .  A
C374        H381   1.078       .  S
C375        C376   1.397       .  A
C375        H382   1.083       .  S
C376        C377   1.402       .  A
C376        H383   1.083       .  S
C377        C378   1.402       .  A
C378        H384   1.085       .  S
H380       C1011   1.085       .  S
C385        C497   1.581       .  S
C385        C386   1.424       .  A
C385        C390   1.408       .  A
C386        C387   1.399       .  A
C386        H395   1.075       .  S
C387        C388   1.396       .  A
C387        H396   1.084       .  S
C388        C394   1.403       .  A
C388        C389   1.405       .  A
C389        C391   1.399       .  A
C389        C390   1.395       .  A
C390        H397   1.067       .  S
C391        C392   1.392       .  A
C391        H398   1.084   1_455  S
C392        C393   1.406       .  A
C392        H399   1.083       .  S
C393        C394   1.407       .  A
C394        H400   1.084       .  S
C401        C402   1.421       .  A
C401        C406   1.431       .  A
C402        C403   1.402       .  A
C402        H411   1.061       .  S
C403        C404   1.396       .  A
C403        H412   1.084       .  S
C404        C410   1.411       .  A
C404        C405   1.406       .  A
C405        C407   1.404       .  A
C405        C406   1.402       .  A
C406        H413   1.073       .  S
C407        C408   1.394       .  A
C407        H414   1.084       .  S
C408        C409   1.400       .  A
C408        H415   1.084       .  S
C409        C410   1.407       .  A
C410        H416   1.084       .  S
C417        C418   1.410       .  A
C418        C419   1.406       .  A
C418        H427   1.083       .  S
C419        C420   1.406       .  A
C419        H428   1.084       .  S
C420        C426   1.421       .  A
C420        C421   1.409       .  A
C422        H429   1.085       .  S
C423        C424   1.378       .  A
C423        H430   1.085       .  S
C424        H431   1.077       .  S
C425       C1136   1.615       .  S
C425        C426   1.429       .  A
C426       H1072   1.068       .  S
H432       C1066   1.068       .  S
C433        C976   1.561   1_554  S
C433        C438   1.418       .  A
C434        C435   1.384       .  A
C434        H443   1.069       .  S
C435        C436   1.387       .  A
C435        H444   1.084       .  S
C436        C442   1.394       .  A
C437        C439   1.399       .  A
C437        C438   1.403       .  A
C438       H1085   1.073       .  S
C439        C440   1.395       .  A
C439        H446   1.084       .  S
C440        C441   1.407       .  A
C440        H447   1.083       .  S
C442        H448   1.085       .  S
H445       C1078   1.073   1_455  S
C449        C450   1.420       .  A
C450        C451   1.399       .  A
C450        H459   1.069       .  S
C451        C452   1.398       .  A
C451        H460   1.084       .  S
C452        C458   1.405       .  A
C452        C453   1.407       .  A
C454        H461   1.074       .  S
C455        C456   1.396       .  A
C455        H462   1.084       .  S
C456        H463   1.084       .  S
C457        C458   1.405       .  A
C458        H464   1.085       .  S
C465        C466   1.422       .  A
C466        C467   1.397       .  A
C466        H475   1.075       .  S
C467        C468   1.396       .  A
C467        H476   1.083       .  S
C468        C474   1.406       .  A
C469        C471   1.400       .  A
C469        C470   1.405       .  A
C470        H477   1.062       .  S
C471        C472   1.396       .  A
C471        H478   1.084       .  S
C472        H479   1.083       .  S
C473        C474   1.407       .  A
C474        H480   1.084       .  S
O482       Cu490   2.011       .  S
O483       Cu490   2.026       .  S
O484       Cu490   2.009       .  S
O485       Cu490   2.008       .  S
O486       Cu491   2.039       .  S
O486        C495   1.284       .  A
O487       Cu491   2.038       .  S
O487        C494   1.283       .  A
O488       Cu491   1.975       .  S
O488        C493   1.272       .  A
O489       Cu491   1.967       .  S
O489        C492   1.271       .  A
C492        C601   1.463       .  S
C493        C617   1.458       .  S
C494        C633   1.489       .  S
C495        C577   1.483       .  S
C496        C497   1.654       .  S
C496       C1065   1.615       .  S
C496       C1233   1.559       .  S
C497        C561   1.608       .  S
O498       Cu506   2.008       .  S
O498        C508   1.278       .  A
O499       Cu506   2.009       .  S
O499        C509   1.278       .  A
O500       Cu506   2.012       .  S
O500        C510   1.279       .  A
O501       Cu506   2.005       .  S
O501        C511   1.276       .  A
O502       Cu507   2.023       .  S
O502        C511   1.279       .  A
O503       Cu507   2.019       .  S
O503        C510   1.279       .  A
O504       Cu507   2.001       .  S
O504        C509   1.276       .  A
O505       Cu507   2.001       .  S
O505        C508   1.278       .  A
Cu506      Cu507   2.372       .  S
C508        C553   1.478       .  S
C509        C537   1.468       .  S
C510        C521   1.484       .  S
C511        C569   1.468       .  S
C512        C513   1.589   1_554  S
C513        C514   1.418       .  A
C513        C518   1.420       .  A
C514        C515   1.401       .  A
C514        H523   1.070       .  S
C515        C516   1.397       .  A
C515        H524   1.083   1_455  S
C516        C522   1.408       .  A
C516        C517   1.406       .  A
C517        C519   1.401       .  A
C517        C518   1.403       .  A
C518        H525   1.070       .  S
C519        C520   1.396       .  A
C519        H526   1.084       .  S
C520        C521   1.406       .  A
C520        H527   1.083       .  S
C521        C522   1.410       .  A
C522        H528   1.084       .  S
C529        C530   1.426       .  A
C529        C534   1.432       .  A
C530        C531   1.396       .  A
C530        H539   1.059       .  S
C531        C532   1.389       .  A
C531       H1180   1.085       .  S
C532        C538   1.403       .  A
C532        C533   1.402       .  A
C533        C535   1.403       .  A
C533        C534   1.400       .  A
C534        H541   1.078       .  S
C535        C536   1.396       .  A
C535        H542   1.084       .  S
C536        C537   1.402       .  A
C536        H543   1.083       .  S
C537        C538   1.403       .  A
C538        H544   1.085       .  S
H540       C1171   1.085       .  S
C545        C546   1.424       .  A
C545        C550   1.410       .  A
C546        C547   1.400       .  A
C546        H555   1.075       .  S
C547        C548   1.397       .  A
C547        H556   1.084       .  S
C548        C554   1.405       .  A
C548        C549   1.405       .  A
C549        C551   1.400       .  A
C549        C550   1.396       .  A
C550        H557   1.068       .  S
C551        C552   1.393       .  A
C551        H558   1.084   1_455  S
C552        C553   1.406       .  A
C552        H559   1.083   1_455  S
C553        C554   1.409       .  A
C554        H560   1.084       .  S
C561        C562   1.423       .  A
C561        C566   1.431       .  A
C562        C563   1.403       .  A
C562        H571   1.061       .  S
C563        C564   1.396       .  A
C563        H572   1.084       .  S
C564        C570   1.411       .  A
C564        C565   1.405       .  A
C565        C567   1.404       .  A
C565        C566   1.401       .  A
C566        H573   1.071       .  S
C567        C568   1.393       .  A
C567        H574   1.084       .  S
C568        C569   1.399       .  A
C568        H575   1.084       .  S
C569        C570   1.407       .  A
C570        H576   1.084       .  S
C577        C578   1.410       .  A
C578        C579   1.406       .  A
C578        H587   1.083       .  S
C579        C580   1.406       .  A
C579        H588   1.084       .  S
C580        C586   1.421       .  A
C580        C581   1.411       .  A
C582        H589   1.085       .  S
C583        C584   1.382       .  A
C583        H590   1.085       .  S
C584        H591   1.077       .  S
C585        C976   1.611       .  S
C585        C586   1.428       .  A
C586       H1232   1.069       .  S
H592       C1226   1.069       .  S
C593       C1136   1.559       .  S
C593        C598   1.417       .  A
C594        C595   1.389       .  A
C594        H603   1.069       .  S
C595        C596   1.390       .  A
C595        H604   1.084       .  S
C596        C602   1.397       .  A
C597        C599   1.400       .  A
C597        C598   1.401       .  A
C598       H1245   1.072       .  S
C599        C600   1.395       .  A
C599        H606   1.084       .  S
C600        C601   1.407       .  A
C600        H607   1.083       .  S
C602        H608   1.085       .  S
H605       C1238   1.072   1_455  S
C609        C610   1.419       .  A
C610        C611   1.399       .  A
C610        H619   1.069       .  S
C611        C612   1.398       .  A
C611        H620   1.083       .  S
C612        C618   1.403       .  A
C612        C613   1.405       .  A
C614        H621   1.076       .  S
C615        C616   1.395       .  A
C615        H622   1.084       .  S
C616        H623   1.084       .  S
C617        C618   1.404       .  A
C618        H624   1.084       .  S
C625        C626   1.422       .  A
C626        C627   1.395       .  A
C626        H635   1.075       .  S
C627        C628   1.394       .  A
C627        H636   1.084       .  S
C628        C634   1.408       .  A
C629        C631   1.402       .  A
C629        C630   1.408       .  A
C630        H637   1.069       .  S
C631        C632   1.399       .  A
C631        H638   1.084       .  S
C632        H639   1.083       .  S
C633        C634   1.406       .  A
C634        H640   1.084       .  S
C641        C977   1.642   1_556  S
C641        C832   1.650   1_556  S
C641       C1249   1.582       .  S
C641       C1105   1.576   1_556  S
O642       Cu650   2.011       .  S
O642        C972   1.281       .  A
O643       Cu650   2.024       .  S
O643        C973   1.280       .  A
O644       Cu650   1.997       .  S
O644        C974   1.276       .  A
O645       Cu650   2.002       .  S
O645        C975   1.276       .  A
O646       Cu651   2.033       .  S
O646        C655   1.284   1_545  A
O647       Cu651   2.034       .  S
O647        C654   1.282   1_545  A
O648       Cu651   1.980       .  S
O648        C653   1.272   1_545  A
O649       Cu651   1.971       .  S
O649        C652   1.272       .  A
Cu650      Cu971   2.372       .  S
Cu651      Cu970   2.373   1_545  S
C652        O962   1.281   1_545  A
C652        C761   1.467       .  S
C653        O963   1.280       .  A
C653        C777   1.462       .  S
C654        O964   1.276       .  A
C654        C793   1.483       .  S
C655        O965   1.274       .  A
C655        C737   1.480       .  S
C656        C657   1.651   1_556  S
C656       C1152   1.666   1_546  S
C657        C961   1.642       .  S
C657        C865   1.584   1_554  S
C657        C721   1.600       .  S
O658       Cu666   2.013       .  S
O658        C668   1.278       .  A
O659       Cu666   2.012       .  S
O659        C669   1.278       .  A
O660       Cu666   2.013       .  S
O660        C670   1.279       .  A
O661       Cu666   2.002       .  S
O661        C671   1.276       .  A
O662       Cu667   2.008       .  S
O662        C671   1.277       .  A
O663       Cu667   2.008       .  S
O663        C670   1.278       .  A
O664       Cu667   1.996       .  S
O664        C669   1.276       .  A
O665       Cu667   1.996       .  S
O665        C668   1.278       .  A
Cu666      Cu667   2.373       .  S
C668        C713   1.479       .  S
C669        C697   1.467       .  S
C670        C681   1.481       .  S
C671        C729   1.461       .  S
C672        C801   1.648       .  S
C672       C1136   1.666       .  S
C672        C673   1.585       .  S
C672        C849   1.613       .  S
C673        C674   1.418       .  A
C673        C678   1.420       .  A
C674        C675   1.399       .  A
C674        H683   1.067       .  S
C675        C676   1.396       .  A
C675        H684   1.084       .  S
C676        C682   1.405       .  A
C676        C677   1.406       .  A
C677        C679   1.402       .  A
C677        C678   1.403       .  A
C678        H685   1.072       .  S
C679        C680   1.397       .  A
C679        H686   1.084       .  S
C680        C681   1.406       .  A
C680        H687   1.083       .  S
C681        C682   1.408       .  A
C682        H688   1.084       .  S
C689        C832   1.615       .  S
C689        C690   1.426       .  A
C689        C694   1.435       .  A
C690        C691   1.395       .  A
C690        H699   1.057       .  S
C691        C692   1.388       .  A
C692        C698   1.401       .  A
C692        C693   1.402       .  A
C693        C695   1.405       .  A
C693        C694   1.401       .  A
C694        H701   1.078       .  S
C695        C696   1.398       .  A
C695        H702   1.084       .  S
C696        C697   1.402       .  A
C696        H703   1.083       .  S
C697        C698   1.401       .  A
C698        H704   1.085       .  S
C705        C817   1.586       .  S
C705        C706   1.425       .  A
C705        C710   1.408       .  A
C706        C707   1.402       .  A
C706        H715   1.075       .  S
C707        C708   1.398       .  A
C707        H716   1.083       .  S
C708        C714   1.406       .  A
C708        C709   1.405       .  A
C709        C711   1.399       .  A
C709        C710   1.394       .  A
C710        H717   1.063       .  S
C711        C712   1.391       .  A
C711        H718   1.084       .  S
C712        C713   1.406       .  A
C712        H719   1.083       .  S
C713        C714   1.410       .  A
C714        H720   1.084       .  S
C721        C722   1.421       .  A
C721        C726   1.429       .  A
C722        C723   1.398       .  A
C722        H731   1.058       .  S
C723        C724   1.393       .  A
C723        H732   1.084       .  S
C724        C730   1.407       .  A
C724        C725   1.406       .  A
C725        C727   1.403       .  A
C725        C726   1.399       .  A
C726        H733   1.072       .  S
C727        C728   1.392       .  A
C727        H734   1.084       .  S
C728        C729   1.399       .  A
C728        H735   1.084       .  S
C729        C730   1.403       .  A
C730        H736   1.084       .  S
C737        C738   1.410       .  A
C737       C1062   1.393   1_565  A
C738        C739   1.407       .  A
C738        H747   1.083       .  S
C739        C740   1.407       .  A
C739        H748   1.084       .  S
C740        C746   1.421   1_655  A
C740        C741   1.410   1_565  A
C741       C1063   1.377       .  A
C741       C1062   1.398       .  A
C742       C1057   1.398       .  A
C742       C1061   1.404       .  A
C742        H749   1.085       .  S
C743       C1061   1.381       .  A
C743        C744   1.384       .  A
C743        H750   1.084       .  S
C744       C1065   1.435   1_655  A
C744        H751   1.077       .  S
C745       C1064   1.433   1_455  A
C745        C746   1.428   1_545  A
C753       C1074   1.414   1_545  A
C753        C758   1.420       .  A
C754       C1073   1.415   1_655  A
C754        C755   1.385       .  A
C754        H763   1.070   1_554  S
C755        C756   1.387       .  A
C755        H764   1.084       .  S
C756        C762   1.395       .  A
C756       C1077   1.412       .  A
C757       C1076   1.410   1_545  A
C757        C759   1.401       .  A
C757        C758   1.403       .  A
C759        C760   1.396       .  A
C759        H766   1.084       .  S
C760        C761   1.408       .  A
C760        H767   1.083       .  S
C761       C1082   1.396   1_545  A
C762       C1081   1.396       .  A
C762        H768   1.085       .  S
C769       C1121   1.584       .  S
C769        C770   1.420       .  A
C769       C1094   1.429   1_545  A
C770        C771   1.399       .  A
C770        H779   1.070       .  S
C771        C772   1.398   1_545  A
C771        H780   1.083       .  S
C772        C778   1.404       .  A
C772        C773   1.406       .  A
C773       C1095   1.406       .  A
C773       C1094   1.399       .  A
C774       C1089   1.427       .  A
C774       C1093   1.397       .  A
C774        H781   1.076       .  S
C775       C1093   1.403       .  A
C775        C776   1.392       .  A
C775        H782   1.084       .  S
C776       C1097   1.398       .  A
C776        H783   1.084       .  S
C777       C1096   1.399       .  A
C777        C778   1.405       .  A
C778        H784   1.084       .  S
C785        C961   1.583       .  S
C785        C786   1.424       .  A
C785       C1110   1.411   1_545  A
C786        C787   1.398       .  A
C786        H795   1.074       .  S
C787        C788   1.395       .  A
C787        H796   1.084       .  S
C788        C794   1.408       .  A
C788       C1109   1.409   1_545  A
C789       C1108   1.408       .  A
C789        C791   1.400       .  A
C789        C790   1.403       .  A
C790       C1105   1.411       .  A
C790        H797   1.064       .  S
C791        C792   1.396       .  A
C791        H798   1.084       .  S
C792       C1113   1.408       .  A
C792        H799   1.083       .  S
C793       C1112   1.408       .  A
C793        C794   1.406   1_565  A
C794        H800   1.084       .  S
C801       C1137   1.642       .  S
C801       C1089   1.583       .  S
C801       C1265   1.580       .  S
O802       Cu810   2.006       .  S
O802       C1132   1.280       .  A
O803       Cu810   2.023       .  S
O803       C1133   1.279       .  A
O804       Cu810   2.004       .  S
O804       C1134   1.277       .  A
O805       Cu810   2.000       .  S
O805       C1135   1.275       .  A
O806       Cu811   2.035       .  S
O806        C815   1.283   1_545  A
O807       Cu811   2.033       .  S
O807        C814   1.282   1_545  A
O808       Cu811   1.974       .  S
O808        C813   1.272   1_545  A
O809       Cu811   1.970       .  S
O809        C812   1.272       .  A
Cu810     Cu1131   2.373       .  S
Cu811     Cu1130   2.372   1_545  S
C812       O1122   1.280   1_545  A
C812        C921   1.467       .  S
C813       O1123   1.279       .  A
C813        C937   1.459       .  S
C814       O1124   1.278       .  A
C814        C953   1.490       .  S
C815       O1125   1.276       .  A
C815        C897   1.485       .  S
C816        C817   1.654       .  S
C816        C992   1.665   1_545  S
C817       C1121   1.643       .  S
C817        C881   1.596       .  S
O818       Cu826   2.005       .  S
O818        C828   1.277       .  A
O819       Cu826   2.003       .  S
O819        C829   1.277       .  A
O820       Cu826   2.016       .  S
O820        C830   1.279       .  A
O821       Cu826   2.003       .  S
O821        C831   1.276       .  A
O822       Cu827   2.009       .  S
O822        C831   1.277       .  A
O823       Cu827   2.006       .  S
O823        C830   1.278       .  A
O824       Cu827   2.004       .  S
O824        C829   1.277       .  A
O825       Cu827   2.003       .  S
O825        C828   1.278       .  A
Cu826      Cu827   2.373       .  S
C828        C873   1.479       .  S
C829        C857   1.467       .  S
C830        C841   1.481       .  S
C831        C889   1.462       .  S
C832        C976   1.665   1_554  S
C832        C833   1.584   1_554  S
C833        C834   1.417       .  A
C833        C838   1.422       .  A
C834        C835   1.396       .  A
C834        H843   1.068       .  S
C835        C836   1.394       .  A
C835        H844   1.084       .  S
C836        C842   1.403       .  A
C836        C837   1.406       .  A
C837        C839   1.403       .  A
C837        C838   1.404       .  A
C838        H845   1.070       .  S
C839        C840   1.398       .  A
C839        H846   1.084       .  S
C840        C841   1.406       .  A
C840        H847   1.083       .  S
C841        C842   1.407       .  A
C842        H848   1.084       .  S
C849        C850   1.425       .  A
C849        C854   1.433       .  A
C850        C851   1.395       .  A
C850        H859   1.058       .  S
C851        C852   1.388       .  A
C852        C858   1.403       .  A
C852        C853   1.403       .  A
C853        C855   1.403       .  A
C853        C854   1.401       .  A
C854        H861   1.078       .  S
C855        C856   1.396       .  A
C855        H862   1.084       .  S
C856        C857   1.403       .  A
C856        H863   1.083       .  S
C857        C858   1.401       .  A
C858        H864   1.085       .  S
C865        C866   1.425       .  A
C865        C870   1.409       .  A
C866        C867   1.399       .  A
C866        H875   1.074       .  S
C867        C868   1.396       .  A
C867        H876   1.084       .  S
C868        C874   1.405       .  A
C868        C869   1.405       .  A
C869        C871   1.399       .  A
C869        C870   1.397       .  A
C870        H877   1.066       .  S
C871        C872   1.393       .  A
C871        H878   1.084       .  S
C872        C873   1.406       .  A
C872        H879   1.083       .  S
C873        C874   1.409       .  A
C874        H880   1.084       .  S
C881        C882   1.420       .  A
C881        C886   1.430       .  A
C882        C883   1.399       .  A
C882        H891   1.062       .  S
C883        C884   1.395       .  A
C883        H892   1.084       .  S
C884        C890   1.407       .  A
C884        C885   1.406       .  A
C885        C887   1.404       .  A
C885        C886   1.399       .  A
C886        H893   1.072       .  S
C887        C888   1.393       .  A
C887        H894   1.084       .  S
C888        C889   1.399       .  A
C888        H895   1.084       .  S
C889        C890   1.403       .  A
C890        H896   1.084       .  S
C897        C898   1.409       .  A
C897       C1222   1.397   1_565  A
C898        C899   1.406       .  A
C898        H907   1.083       .  S
C899        C900   1.406       .  A
C899        H908   1.084       .  S
C900        C906   1.421   1_655  A
C900        C901   1.410   1_565  A
C901       C1223   1.380       .  A
C901       C1222   1.403       .  A
C902       C1217   1.396       .  A
C902       C1221   1.403       .  A
C902        H909   1.085       .  S
C903       C1221   1.379       .  A
C903        C904   1.382       .  A
C903        H910   1.085       .  S
C904       C1225   1.435   1_655  A
C904        H911   1.078       .  S
C905       C1224   1.435   1_455  A
C905        C906   1.427   1_545  A
C913       C1234   1.415   1_545  A
C913        C918   1.418       .  A
C914       C1233   1.414   1_655  A
C914        C915   1.384       .  A
C914        H923   1.068       .  S
C915        C916   1.387       .  A
C915        H924   1.084       .  S
C916        C922   1.392       .  A
C916       C1237   1.412       .  A
C917       C1236   1.410   1_545  A
C917        C919   1.399       .  A
C917        C918   1.401       .  A
C919        C920   1.393       .  A
C919        H926   1.084       .  S
C920        C921   1.407       .  A
C920        H927   1.083       .  S
C921       C1242   1.399   1_545  A
C922       C1241   1.395       .  A
C922        H928   1.085       .  S
C929        C961   1.579   1_566  S
C929        C930   1.419   1_565  A
C929       C1254   1.429       .  A
C930        C931   1.397   1_545  A
C930        H939   1.070       .  S
C931        C932   1.397       .  A
C931        H940   1.083   1_565  S
C932        C938   1.401       .  A
C932        C933   1.406       .  A
C933       C1255   1.405       .  A
C933       C1254   1.397       .  A
C934       C1249   1.429       .  A
C934       C1253   1.396       .  A
C934        H941   1.075       .  S
C935       C1253   1.405       .  A
C935        C936   1.393       .  A
C935        H942   1.084       .  S
C936       C1257   1.398       .  A
C936        H943   1.084       .  S
C937       C1256   1.399       .  A
C937        C938   1.403       .  A
C938        H944   1.085       .  S
C945       C1121   1.585       .  S
C945        C946   1.424       .  A
C945       C1270   1.415   1_545  A
C946        C947   1.399       .  A
C946        H955   1.075       .  S
C947        C948   1.396       .  A
C947        H956   1.084       .  S
C948        C954   1.410       .  A
C948       C1269   1.408   1_545  A
C949       C1268   1.410       .  A
C949        C951   1.402       .  A
C949        C950   1.410       .  A
C950       C1265   1.415       .  A
C950        H957   1.069       .  S
C951        C952   1.401       .  A
C951        H958   1.084       .  S
C952       C1273   1.410       .  A
C952        H959   1.083       .  S
C953       C1272   1.409       .  A
C953        C954   1.409   1_565  A
C954        H960   1.084       .  S
C961       C1152   1.654   1_545  S
O962       Cu970   2.011       .  S
O963       Cu970   2.029       .  S
O964       Cu970   1.992       .  S
O965       Cu970   1.995       .  S
O966       Cu971   2.037       .  S
O966        C975   1.283       .  A
O967       Cu971   2.029       .  S
O967        C974   1.281       .  A
O968       Cu971   1.977       .  S
O968        C973   1.272       .  A
O969       Cu971   1.969       .  S
O969        C972   1.272       .  A
C972       C1081   1.466       .  S
C973       C1097   1.459       .  S
C974       C1113   1.483       .  S
C975       C1057   1.486       .  S
C976        C977   1.652   1_556  S
C977       C1185   1.582   1_554  S
C977       C1041   1.605       .  S
O978       Cu986   2.009       .  S
O978        C988   1.278       .  A
O979       Cu986   2.012       .  S
O979        C989   1.278       .  A
O980       Cu986   2.019       .  S
O980        C990   1.280       .  A
O981       Cu986   2.010       .  S
O981        C991   1.277       .  A
O982       Cu987   2.022       .  S
O982        C991   1.279       .  A
O983       Cu987   2.017       .  S
O983        C990   1.279       .  A
O984       Cu987   1.998       .  S
O984        C989   1.276       .  A
O985       Cu987   1.995       .  S
O985        C988   1.277       .  A
Cu986      Cu987   2.372       .  S
C988       C1033   1.476       .  S
C989       C1017   1.467       .  S
C990       C1001   1.486       .  S
C991       C1049   1.470       .  S
C992       C1121   1.650   1_565  S
C992        C993   1.589       .  S
C992       C1169   1.612       .  S
C993        C994   1.418       .  A
C993        C998   1.423       .  A
C994        C995   1.399       .  A
C994       H1003   1.067       .  S
C995        C996   1.395       .  A
C995       H1004   1.084       .  S
C996       C1002   1.408       .  A
C996        C997   1.406       .  A
C997        C999   1.403       .  A
C997        C998   1.406       .  A
C998       H1005   1.070       .  S
C999       C1000   1.398       .  A
C999       H1006   1.084       .  S
C1000      C1001   1.406       .  A
C1000      H1007   1.083       .  S
C1001      C1002   1.409       .  A
C1002      H1008   1.084       .  S
C1009      C1152   1.612       .  S
C1009      C1010   1.427       .  A
C1009      C1014   1.434       .  A
C1010      C1011   1.396       .  A
C1010      H1019   1.060       .  S
C1011      C1012   1.389       .  A
C1012      C1018   1.403       .  A
C1012      C1013   1.403       .  A
C1013      C1015   1.404       .  A
C1013      C1014   1.401       .  A
C1014      H1021   1.078       .  S
C1015      C1016   1.397       .  A
C1015      H1022   1.083       .  S
C1016      C1017   1.402       .  A
C1016      H1023   1.083       .  S
C1017      C1018   1.402       .  A
C1018      H1024   1.085       .  S
C1025      C1137   1.581       .  S
C1025      C1026   1.424       .  A
C1025      C1030   1.408       .  A
C1026      C1027   1.399       .  A
C1026      H1035   1.075       .  S
C1027      C1028   1.396       .  A
C1027      H1036   1.084       .  S
C1028      C1034   1.403       .  A
C1028      C1029   1.405       .  A
C1029      C1031   1.399       .  A
C1029      C1030   1.395       .  A
C1030      H1037   1.067       .  S
C1031      C1032   1.392       .  A
C1031      H1038   1.084       .  S
C1032      C1033   1.406       .  A
C1032      H1039   1.083       .  S
C1033      C1034   1.407       .  A
C1034      H1040   1.084       .  S
C1041      C1042   1.421       .  A
C1041      C1046   1.431       .  A
C1042      C1043   1.402       .  A
C1042      H1051   1.061       .  S
C1043      C1044   1.396       .  A
C1043      H1052   1.084       .  S
C1044      C1050   1.411       .  A
C1044      C1045   1.406       .  A
C1045      C1047   1.404       .  A
C1045      C1046   1.402       .  A
C1046      H1053   1.073       .  S
C1047      C1048   1.394       .  A
C1047      H1054   1.084       .  S
C1048      C1049   1.400       .  A
C1048      H1055   1.084       .  S
C1049      C1050   1.407       .  A
C1050      H1056   1.084       .  S
C1057      C1058   1.410       .  A
C1058      C1059   1.406       .  A
C1058      H1067   1.083       .  S
C1059      C1060   1.406       .  A
C1059      H1068   1.084   1_655  S
C1060      C1066   1.421   1_655  A
C1060      C1061   1.409       .  A
C1062      H1069   1.085       .  S
C1063      C1064   1.378       .  A
C1063      H1070   1.085       .  S
C1064      H1071   1.077       .  S
C1065      C1066   1.429       .  A
C1073      C1078   1.418   1_455  A
C1074      C1075   1.384       .  A
C1074      H1083   1.069       .  S
C1075      C1076   1.387       .  A
C1075      H1084   1.084       .  S
C1076      C1082   1.394       .  A
C1077      C1079   1.399       .  A
C1077      C1078   1.403       .  A
C1079      C1080   1.395       .  A
C1079      H1086   1.084       .  S
C1080      C1081   1.407       .  A
C1080      H1087   1.083       .  S
C1082      H1088   1.085       .  S
C1089      C1090   1.420       .  A
C1090      C1091   1.399       .  A
C1090      H1099   1.069       .  S
C1091      C1092   1.398       .  A
C1091      H1100   1.084       .  S
C1092      C1098   1.405       .  A
C1092      C1093   1.407       .  A
C1094      H1101   1.074       .  S
C1095      C1096   1.396       .  A
C1095      H1102   1.084       .  S
C1096      H1103   1.084       .  S
C1097      C1098   1.405       .  A
C1098      H1104   1.085       .  S
C1105      C1106   1.422       .  A
C1106      C1107   1.397       .  A
C1106      H1115   1.075       .  S
C1107      C1108   1.396       .  A
C1107      H1116   1.083       .  S
C1108      C1114   1.406       .  A
C1109      C1111   1.400       .  A
C1109      C1110   1.405       .  A
C1110      H1117   1.062       .  S
C1111      C1112   1.396       .  A
C1111      H1118   1.084       .  S
C1112      H1119   1.083       .  S
C1113      C1114   1.407       .  A
C1114      H1120   1.084       .  S
O1122     Cu1130   2.011       .  S
O1123     Cu1130   2.026       .  S
O1124     Cu1130   2.009       .  S
O1125     Cu1130   2.008       .  S
O1126     Cu1131   2.039       .  S
O1126      C1135   1.284       .  A
O1127     Cu1131   2.038       .  S
O1127      C1134   1.283       .  A
O1128     Cu1131   1.975       .  S
O1128      C1133   1.272       .  A
O1129     Cu1131   1.967       .  S
O1129      C1132   1.271       .  A
C1132      C1241   1.463       .  S
C1133      C1257   1.458       .  S
C1134      C1273   1.489       .  S
C1135      C1217   1.483       .  S
C1136      C1137   1.654       .  S
C1137      C1201   1.608       .  S
O1138     Cu1146   2.008       .  S
O1138      C1148   1.278       .  A
O1139     Cu1146   2.009       .  S
O1139      C1149   1.278       .  A
O1140     Cu1146   2.012       .  S
O1140      C1150   1.279       .  A
O1141     Cu1146   2.005       .  S
O1141      C1151   1.276       .  A
O1142     Cu1147   2.023       .  S
O1142      C1151   1.279       .  A
O1143     Cu1147   2.019       .  S
O1143      C1150   1.279       .  A
O1144     Cu1147   2.001       .  S
O1144      C1149   1.276       .  A
O1145     Cu1147   2.001       .  S
O1145      C1148   1.278       .  A
Cu1146    Cu1147   2.372       .  S
C1148      C1193   1.478       .  S
C1149      C1177   1.468       .  S
C1150      C1161   1.484       .  S
C1151      C1209   1.468       .  S
C1152      C1153   1.589   1_554  S
C1153      C1154   1.418       .  A
C1153      C1158   1.420       .  A
C1154      C1155   1.401       .  A
C1154      H1163   1.070       .  S
C1155      C1156   1.397       .  A
C1155      H1164   1.083       .  S
C1156      C1162   1.408       .  A
C1156      C1157   1.406       .  A
C1157      C1159   1.401       .  A
C1157      C1158   1.403       .  A
C1158      H1165   1.070       .  S
C1159      C1160   1.396       .  A
C1159      H1166   1.084       .  S
C1160      C1161   1.406       .  A
C1160      H1167   1.083       .  S
C1161      C1162   1.410       .  A
C1162      H1168   1.084       .  S
C1169      C1170   1.426       .  A
C1169      C1174   1.432       .  A
C1170      C1171   1.396       .  A
C1170      H1179   1.059       .  S
C1171      C1172   1.389       .  A
C1172      C1178   1.403       .  A
C1172      C1173   1.402       .  A
C1173      C1175   1.403       .  A
C1173      C1174   1.400       .  A
C1174      H1181   1.078       .  S
C1175      C1176   1.396       .  A
C1175      H1182   1.084       .  S
C1176      C1177   1.402       .  A
C1176      H1183   1.083       .  S
C1177      C1178   1.403       .  A
C1178      H1184   1.085       .  S
C1185      C1186   1.424       .  A
C1185      C1190   1.410       .  A
C1186      C1187   1.400       .  A
C1186      H1195   1.075       .  S
C1187      C1188   1.397       .  A
C1187      H1196   1.084       .  S
C1188      C1194   1.405       .  A
C1188      C1189   1.405       .  A
C1189      C1191   1.400       .  A
C1189      C1190   1.396       .  A
C1190      H1197   1.068       .  S
C1191      C1192   1.393       .  A
C1191      H1198   1.084       .  S
C1192      C1193   1.406       .  A
C1192      H1199   1.083       .  S
C1193      C1194   1.409       .  A
C1194      H1200   1.084       .  S
C1201      C1202   1.423       .  A
C1201      C1206   1.431       .  A
C1202      C1203   1.403       .  A
C1202      H1211   1.061       .  S
C1203      C1204   1.396       .  A
C1203      H1212   1.084       .  S
C1204      C1210   1.411       .  A
C1204      C1205   1.405       .  A
C1205      C1207   1.404       .  A
C1205      C1206   1.401       .  A
C1206      H1213   1.071       .  S
C1207      C1208   1.393       .  A
C1207      H1214   1.084       .  S
C1208      C1209   1.399       .  A
C1208      H1215   1.084       .  S
C1209      C1210   1.407       .  A
C1210      H1216   1.084       .  S
C1217      C1218   1.410       .  A
C1218      C1219   1.406       .  A
C1218      H1227   1.083       .  S
C1219      C1220   1.406       .  A
C1219      H1228   1.084   1_655  S
C1220      C1226   1.421   1_655  A
C1220      C1221   1.411       .  A
C1222      H1229   1.085       .  S
C1223      C1224   1.382       .  A
C1223      H1230   1.085       .  S
C1224      H1231   1.077       .  S
C1225      C1226   1.428       .  A
C1233      C1238   1.417   1_455  A
C1234      C1235   1.389       .  A
C1234      H1243   1.069       .  S
C1235      C1236   1.390       .  A
C1235      H1244   1.084       .  S
C1236      C1242   1.397       .  A
C1237      C1239   1.400       .  A
C1237      C1238   1.401       .  A
C1239      C1240   1.395       .  A
C1239      H1246   1.084       .  S
C1240      C1241   1.407       .  A
C1240      H1247   1.083       .  S
C1242      H1248   1.085       .  S
C1249      C1250   1.419       .  A
C1250      C1251   1.399       .  A
C1250      H1259   1.069       .  S
C1251      C1252   1.398       .  A
C1251      H1260   1.083       .  S
C1252      C1258   1.403       .  A
C1252      C1253   1.405       .  A
C1254      H1261   1.076       .  S
C1255      C1256   1.395       .  A
C1255      H1262   1.084       .  S
C1256      H1263   1.084       .  S
C1257      C1258   1.404       .  A
C1258      H1264   1.084       .  S
C1265      C1266   1.422       .  A
C1266      C1267   1.395       .  A
C1266      H1275   1.075       .  S
C1267      C1268   1.394       .  A
C1267      H1276   1.084       .  S
C1268      C1274   1.408       .  A
C1269      C1271   1.402       .  A
C1269      C1270   1.408       .  A
C1270      H1277   1.069       .  S
C1271      C1272   1.399       .  A
C1271      H1278   1.084       .  S
C1272      H1279   1.083       .  S
C1273      C1274   1.406       .  A
C1274      H1280   1.084       .  S
