geometry optimzed in LAMMPS
_audit_creation_date              2020-11-30 
_audit_creation_method            'lammps2cif' 
_symmetry_space_group_name_H-M    'P1' 
_symmetry_Int_Tables_number       1 
_symmetry_cell_setting            triclinic 
loop_ 
_symmetry_equiv_pos_as_xyz 
  x,y,z 
_cell_length_a                    45.41662194 
_cell_length_b                    45.490931747502835 
_cell_length_c                    30.316456571449038 
_cell_angle_alpha                 90.03264584129275 
_cell_angle_beta                  89.94738620825251 
_cell_angle_gamma                 90.04236837627542 
loop_ 
_atom_site_label 
_atom_site_type_symbol 
_atom_site_fract_x 
_atom_site_fract_y 
_atom_site_fract_z 
_atom_site_charge 
O1          O  0.28500122  0.97653182  0.99442860    -0.71900
O2          O  0.36859242  0.97457304  0.98954829    -0.72100
O3          O  0.32854597  0.97653460  0.05427692    -0.72000
O4          O  0.32501973  0.97410377  0.92969922    -0.72000
O5          O  0.32813974  0.02170990  0.92733251    -0.72000
O6          O  0.32777865  0.02417150  0.05276374    -0.72000
O7          O  0.36942346  0.02222114  0.99015625    -0.71900
O8          O  0.28628223  0.02405507  0.98992934    -0.72100
V9          V  0.32679448  0.97634275  0.99195783     1.35200
V10         V  0.32785109  0.02213128  0.99005926     1.35200
C11         C  0.27132511  0.00073768  0.99255092     0.77300
C12         C  0.38331785  0.99821486  0.98978631     0.77400
C13         C  0.32860684  0.00064989  0.07497083     0.77300
C14         C  0.32638822  0.99739036  0.90721304     0.77200
O15         O  0.28858696  0.96996005  0.49172997    -0.71900
O16         O  0.37185982  0.96678315  0.49157753    -0.72100
O17         O  0.33025832  0.96913728  0.55430950    -0.72000
O18         O  0.33004476  0.96790746  0.42890608    -0.72000
O19         O  0.33062297  0.01563158  0.42823118    -0.72000
O20         O  0.33346213  0.01670655  0.55292821    -0.72000
O21         O  0.37371990  0.01447130  0.48773830    -0.71900
O22         O  0.29019833  0.01755235  0.49294087    -0.72100
V23         V  0.33023516  0.96935705  0.49160216     1.35200
V24         V  0.33196292  0.01517185  0.49054364     1.35200
C25         C  0.27504954  0.99417791  0.49275642     0.77300
C26         C  0.38693247  0.99003555  0.48881123     0.77400
C27         C  0.33176361  0.99324060  0.57505040     0.77300
C28         C  0.33020659  0.99165928  0.40723804     0.77200
O29         O  0.02716070  0.66732024  0.94714983    -0.71900
O30         O  0.02490438  0.67171930  0.07198274    -0.72100
O31         O  0.02803146  0.62794979  0.01281103    -0.72000
O32         O  0.02411157  0.71099360  0.00648754    -0.72000
O33         O  0.97634162  0.70890678  0.00726208    -0.72000
O34         O  0.98049592  0.62544608  0.00815594    -0.72000
O35         O  0.97732130  0.66727704  0.07046376    -0.71900
O36         O  0.97936857  0.66704626  0.94530177    -0.72100
V37         V  0.02511661  0.66944299  0.00955774     1.35200
V38         V  0.97926928  0.66720328  0.00787151     1.35200
C39         C  0.00364142  0.66698172  0.92488610     0.77300
C40         C  0.00076749  0.66982848  0.09256773     0.77400
C41         C  0.00503431  0.61237511  0.01083385     0.77300
C42         C  0.99963651  0.72416528  0.00642682     0.77200
O43         O  0.98696661  0.67027417  0.44744284    -0.71900
O44         O  0.98893015  0.66776375  0.57214134    -0.72100
O45         O  0.98685710  0.71077538  0.51192434    -0.72000
O46         O  0.98922728  0.62740889  0.50787831    -0.72000
O47         O  0.03694998  0.62882295  0.50514680    -0.72000
O48         O  0.03453979  0.71229188  0.51135042    -0.72000
O49         O  0.03669974  0.66874947  0.57085940    -0.71900
O50         O  0.03465193  0.67232524  0.44559525    -0.72100
V51         V  0.98894616  0.66911371  0.50980465     1.35200
V52         V  0.03481602  0.67053123  0.50824738     1.35200
C53         C  0.01042395  0.67141788  0.42506450     0.77300
C54         C  0.01304311  0.66781899  0.59287174     0.77400
C55         C  0.01027143  0.72586782  0.51277708     0.77300
C56         C  0.01347125  0.61383546  0.50576056     0.77200
O57         O  0.70176802  0.96924026  0.00656673    -0.71900
O58         O  0.61841499  0.96991194  0.00380704    -0.72100
O59         O  0.66099994  0.96885603  0.94252750    -0.72000
O60         O  0.65888703  0.97036019  0.06775033    -0.72000
O61         O  0.66081923  0.01811287  0.06641042    -0.72000
O62         O  0.66067945  0.01652740  0.94136172    -0.72000
O63         O  0.61879635  0.01767535  0.00351843    -0.71900
O64         O  0.70220935  0.01687716  0.00352088    -0.72100
V65         V  0.66004290  0.97051073  0.00516102     1.35200
V66         V  0.66055539  0.01637737  0.00384069     1.35200
C67         C  0.71626069  0.99292739  0.00483513     0.77300
C68         C  0.60443203  0.99386605  0.00311254     0.77400
C69         C  0.66114826  0.99245899  0.92051582     0.77300
C70         C  0.65986874  0.99450397  0.08830517     0.77200
O71         O  0.65977690  0.02277821  0.44077754    -0.71900
O72         O  0.66192557  0.02347666  0.56598655    -0.72100
O73         O  0.70262493  0.02658136  0.50173754    -0.72000
O74         O  0.61944545  0.01980942  0.50493293    -0.72000
O75         O  0.62321489  0.97224905  0.50184873    -0.72000
O76         O  0.70641657  0.97916459  0.50522330    -0.72000
O77         O  0.66395355  0.97583726  0.56627996    -0.71900
O78         O  0.66586654  0.97544396  0.44119317    -0.72100
V79         V  0.66105586  0.02225955  0.50338224     1.35200
V80         V  0.66478591  0.97658084  0.50369546     1.35200
C81         C  0.66237586  0.99894909  0.41963043     0.77300
C82         C  0.66298903  0.99973573  0.58757032     0.77400
C83         C  0.71883340  0.00404229  0.50349812     0.77300
C84         C  0.60715565  0.99492687  0.50294809     0.77200
O85         O  0.99250346  0.04370209  0.95976509    -0.71900
O86         O  0.99419192  0.96023064  0.95823816    -0.72100
O87         O  0.95169591  0.00105857  0.95946157    -0.72000
O88         O  0.03494349  0.00281055  0.95826700    -0.72000
O89         O  0.03552638  0.00203508  0.02972600    -0.72000
O90         O  0.95199235  0.00060920  0.03095506    -0.72000
O91         O  0.99437889  0.95978412  0.02969085    -0.71900
O92         O  0.99302542  0.04304805  0.03122480    -0.72100
V93         V  0.99333515  0.00196475  0.96031613     1.35200
V94         V  0.99373324  0.00142085  0.02903413     1.35200
C95         C  0.99262071  0.05770251  0.99584432     0.77300
C96         C  0.99444847  0.94566791  0.99374954     0.77400
C97         C  0.93754546  0.00024562  0.99530764     0.77300
C98         C  0.04956060  0.00234428  0.99365485     0.77200
O99         O  0.03886424  0.00468102  0.53409525    -0.71900
O100        O  0.95555856  0.00459211  0.53531457    -0.72100
O101        O  0.99736900  0.96293587  0.53750834    -0.72000
O102        O  0.99701594  0.04614919  0.53200315    -0.72000
O103        O  0.99843116  0.04420254  0.46050786    -0.72000
O104        O  0.99542242  0.96073464  0.46615651    -0.72000
O105        O  0.95496097  0.00414181  0.46376968    -0.71900
O106        O  0.03859883  0.00091521  0.46286407    -0.72100
V107        V  0.99718674  0.00453609  0.53330836     1.35200
V108        V  0.99682127  0.00252037  0.46463614     1.35200
C109        C  0.05308400  0.00248836  0.49842973     0.77300
C110        C  0.94096416  0.00474003  0.49987610     0.77400
C111        C  0.99647505  0.94750262  0.50283252     0.77300
C112        C  0.99796385  0.05941488  0.49542061     0.77200
O113        O  0.97690809  0.29420843  0.99880637    -0.71900
O114        O  0.98068841  0.37721713  0.00591987    -0.72100
O115        O  0.97655489  0.33797204  0.93951589    -0.72000
O116        O  0.98122937  0.33327129  0.06445599    -0.72000
O117        O  0.02888454  0.33245099  0.06042912    -0.72000
O118        O  0.02416379  0.33468943  0.93558649    -0.72000
O119        O  0.02830126  0.37550129  0.99958750    -0.71900
O120        O  0.02463949  0.29206963  0.99608436    -0.72100
V121        V  0.97977303  0.33567490  0.00202783     1.35200
V122        V  0.02558852  0.33377629  0.99800800     1.35200
C123        C  0.00008536  0.27895318  0.99644060     0.77300
C124        C  0.00507789  0.39050608  0.00429922     0.77400
C125        C  0.99960989  0.33643893  0.91616646     0.77300
C126        C  0.00582757  0.33196571  0.08385892     0.77200
O127        O  0.98250935  0.29726710  0.49825727    -0.71900
O128        O  0.98892874  0.38044732  0.49628822    -0.72100
O129        O  0.98830279  0.33818455  0.43517498    -0.72000
O130        O  0.98301196  0.33948342  0.56006719    -0.72000
O131        O  0.03061547  0.33641239  0.56454443    -0.72000
O132        O  0.03583933  0.33393963  0.43955881    -0.72000
O133        O  0.03656109  0.37690695  0.50095995    -0.71900
O134        O  0.02994231  0.29367138  0.50346601    -0.72100
V135        V  0.98661734  0.33879067  0.49761331     1.35200
V136        V  0.03232770  0.33532454  0.50202843     1.35200
C137        C  0.00509658  0.28116418  0.50113902     0.77300
C138        C  0.01383954  0.39279795  0.49790251     0.77400
C139        C  0.01290420  0.33557786  0.41609080     0.77300
C140        C  0.00592652  0.33820511  0.58365496     0.77200
C141        C  0.99830808  0.33582055  0.86733669    -0.20000
C142        C  0.97506943  0.34889894  0.84337059     0.36200
C143        C  0.97551307  0.34791405  0.79695829    -0.26000
C144        C  0.99858606  0.33407925  0.77416899     0.02600
C145        C  0.02123668  0.32021186  0.79812628     0.27500
C146        C  0.02102503  0.32150364  0.84434843    -0.25100
N147        N  0.95154220  0.36370629  0.86602763    -0.82500
H148        H  0.95821095  0.35864767  0.77839983     0.13300
C149        C  0.99969255  0.33546159  0.72526330     0.02600
N150        N  0.04432068  0.30479588  0.77531931    -0.81100
H151        H  0.03858235  0.31092498  0.86257486     0.18100
C152        C  0.02433945  0.34824452  0.70496147    -0.25900
C153        C  0.02670881  0.34978633  0.65884931     0.36100
C154        C  0.00384193  0.33829956  0.63239041    -0.19900
C155        C  0.97885572  0.32608524  0.65274529    -0.25200
C156        C  0.97667131  0.32428441  0.69895009     0.27500
H157        H  0.04176161  0.35723089  0.72532846     0.13300
N158        N  0.05204822  0.36333226  0.63889947    -0.82500
H159        H  0.96133732  0.31716522  0.63250822     0.18100
N160        N  0.95148812  0.31068752  0.71922787    -0.81100
H161        H  0.06691341  0.37037324  0.66301144     0.33700
H162        H  0.04484515  0.38220362  0.62244882     0.38200
H163        H  0.93652995  0.30362511  0.69525157     0.33700
H164        H  0.95881366  0.29184684  0.73561364     0.30400
H165        H  0.05934169  0.29587284  0.79772475     0.33700
H166        H  0.03468343  0.28707367  0.75874174     0.30400
H167        H  0.96056712  0.38200825  0.88192881     0.38300
H168        H  0.93608229  0.37175986  0.84353298     0.33700
C169        C  0.01443882  0.33484577  0.36748662    -0.20000
C170        C  0.03289851  0.31499347  0.34468991     0.36200
C171        C  0.03203734  0.31414070  0.29831644    -0.26000
C172        C  0.01352029  0.33302950  0.27451102     0.02600
C173        C  0.99560388  0.35327938  0.29733751     0.27500
C174        C  0.99594839  0.35367413  0.34359027    -0.25100
N175        N  0.05131601  0.29485205  0.36859044    -0.82500
H176        H  0.04555611  0.29844519  0.28061893     0.13300
C177        C  0.01237957  0.33103444  0.22570972     0.02600
N178        N  0.97718756  0.37338989  0.27335822    -0.81100
H179        H  0.98189094  0.36896945  0.36115168     0.18100
C180        C  0.98541365  0.32476667  0.20532710    -0.25900
C181        C  0.98278081  0.32411925  0.15920406     0.36100
C182        C  0.00773374  0.33028203  0.13273042    -0.19900
C183        C  0.03499748  0.33547962  0.15335837    -0.25200
C184        C  0.03755922  0.33597780  0.19955980     0.27500
H185        H  0.96627785  0.32036557  0.22567269     0.13300
N186        N  0.95487892  0.31712914  0.13940386    -0.82500
H187        H  0.05430308  0.33990583  0.13342388     0.18100
N188        N  0.06545426  0.34208164  0.22001365    -0.81100
H189        H  0.93874725  0.31393997  0.16356782     0.33700
H190        H  0.95725281  0.29701597  0.12306805     0.38200
H191        H  0.08182126  0.34504189  0.19614803     0.33700
H192        H  0.06349929  0.36203824  0.23688425     0.30400
H193        H  0.96529651  0.38675747  0.29505006     0.33700
H194        H  0.99098819  0.38731918  0.25529799     0.30400
H195        H  0.06798118  0.30711793  0.38363276     0.38300
H196        H  0.06187850  0.28041495  0.34689547     0.33700
C197        C  0.00285932  0.24851322  0.50141888    -0.20000
C198        C  0.97556660  0.23358134  0.49736031     0.36200
C199        C  0.97516558  0.20270066  0.49602308    -0.26000
C200        C  0.00119205  0.18637746  0.49946912     0.02600
C201        C  0.02829002  0.20103558  0.50444634     0.27500
C202        C  0.02887957  0.23188881  0.50503808    -0.25100
N203        N  0.94836333  0.24959521  0.49430823    -0.82500
H204        H  0.95440423  0.19120328  0.49231030     0.13300
C205        C  0.99972727  0.15386624  0.49796506     0.02600
N206        N  0.05506490  0.18447874  0.50913080    -0.81100
H207        H  0.04987683  0.24295824  0.50846579     0.18100
C208        C  0.01419418  0.13877121  0.46391692    -0.25900
C209        C  0.01344294  0.10791365  0.46147454     0.36100
C210        C  0.99814819  0.09191593  0.49425562    -0.19900
C211        C  0.98358214  0.10716455  0.52815091    -0.25200
C212        C  0.98415046  0.13796207  0.53030056     0.27500
H213        H  0.02603714  0.15119246  0.43908622     0.13300
N214        N  0.02904730  0.09290135  0.42688160    -0.82500
H215        H  0.97175373  0.09495555  0.55323286     0.18100
N216        N  0.96932797  0.15315736  0.56549024    -0.81100
H217        H  0.04090987  0.10786796  0.40764483     0.33700
H218        H  0.01335548  0.08356394  0.40591397     0.38200
H219        H  0.95872353  0.13824174  0.58638202     0.33700
H220        H  0.98537619  0.16374640  0.58444869     0.30400
H221        H  0.07315358  0.19855349  0.51227112     0.33700
H222        H  0.05362505  0.17264770  0.53861622     0.30400
H223        H  0.94466141  0.25948915  0.52493634     0.38300
H224        H  0.93066587  0.23527595  0.48912325     0.33700
C225        C  0.99824577  0.24657778  0.99464258    -0.20000
C226        C  0.01952178  0.22955560  0.97219519     0.36200
C227        C  0.01684133  0.19879712  0.97199129    -0.26000
C228        C  0.99336151  0.18487063  0.99356794     0.02600
C229        C  0.97196167  0.20180263  0.01555809     0.27500
C230        C  0.97457068  0.23253102  0.01576652    -0.25100
N231        N  0.04349856  0.24350110  0.94930986    -0.82500
H232        H  0.03320602  0.18554535  0.95519626     0.13300
C233        C  0.99200588  0.15242350  0.99396610     0.02600
N234        N  0.94775817  0.18766704  0.03761437    -0.81100
H235        H  0.95823716  0.24556913  0.03299590     0.18100
C236        C  0.99567748  0.13760001  0.03400423    -0.25900
C237        C  0.99612851  0.10676496  0.03572960     0.36100
C238        C  0.99232755  0.09037660  0.99632977    -0.19900
C239        C  0.98819520  0.10550789  0.95631893    -0.25200
C240        C  0.98795942  0.13635343  0.95478244     0.27500
H241        H  0.99891903  0.15024363  0.06392703     0.13300
N242        N  0.00085724  0.09226781  0.07725692    -0.82500
H243        H  0.98506143  0.09326915  0.92602336     0.18100
N244        N  0.98356541  0.15148002  0.91368420    -0.81100
H245        H  0.00194212  0.10755614  0.10298753     0.33700
H246        H  0.02152479  0.08220945  0.07580634     0.38200
H247        H  0.98102455  0.13646112  0.88784561     0.33700
H248        H  0.96375651  0.16307750  0.91606927     0.30400
H249        H  0.93407315  0.20325529  0.05252391     0.33700
H250        H  0.93510339  0.17706861  0.01358833     0.30400
H251        H  0.03453578  0.25572859  0.92340628     0.38300
H252        H  0.05728737  0.22777747  0.93492146     0.33700
C253        C  0.75150232  0.00624846  0.50330782    -0.20000
C254        C  0.76660955  0.03336995  0.49857106     0.36200
C255        C  0.79757408  0.03355033  0.49699415    -0.26000
C256        C  0.81369668  0.00743601  0.50079345     0.02600
C257        C  0.79878871  0.98050413  0.50585731     0.27500
C258        C  0.76795392  0.98019487  0.50714075    -0.25100
N259        N  0.75070166  0.06059328  0.49530337    -0.82500
H260        H  0.80926976  0.05419759  0.49355833     0.13300
C261        C  0.84627656  0.00838720  0.50062785     0.02600
N262        N  0.81510457  0.95351959  0.50937367    -0.81100
H263        H  0.75675508  0.95931503  0.51089903     0.18100
C264        C  0.86142767  0.99822781  0.53781126    -0.25900
C265        C  0.89224665  0.99654140  0.53823664     0.36100
C266        C  0.90835924  0.00581560  0.50076484    -0.19900
C267        C  0.89310184  0.01657354  0.46379994    -0.25200
C268        C  0.86217050  0.01793150  0.46334942     0.27500
H269        H  0.84901056  0.99101083  0.56637567     0.13300
N270        N  0.90708400  0.98483318  0.57624689    -0.82500
H271        H  0.90533356  0.02394210  0.43516179     0.18100
N272        N  0.84682996  0.02859309  0.42511034    -0.81100
H273        H  0.89200628  0.97959904  0.60112154     0.33700
H274        H  0.91697068  0.96505657  0.56676943     0.38200
H275        H  0.86175677  0.03494150  0.40062639     0.33700
H276        H  0.83463224  0.01110876  0.41214579     0.30400
H277        H  0.80088171  0.93563391  0.51331032     0.33700
H278        H  0.82617906  0.95030078  0.47950305     0.30400
H279        H  0.74097523  0.06455025  0.52600823     0.38300
H280        H  0.76512356  0.07812683  0.48967349     0.33700
C281        C  0.66232564  0.99238720  0.87164154    -0.20000
C282        C  0.65200521  0.96847804  0.84608826     0.36200
C283        C  0.65268506  0.97045470  0.79981530    -0.26000
C284        C  0.66422345  0.99532111  0.77854085     0.02600
C285        C  0.67513284  0.01886675  0.80398994     0.27500
C286        C  0.67369001  0.01731353  0.85016091    -0.25100
N287        N  0.64010180  0.94267736  0.86690301    -0.82500
H288        H  0.64410119  0.95250655  0.78012878     0.13300
C289        C  0.66443665  0.99653658  0.72958226     0.02600
N290        N  0.68787833  0.04414074  0.78282181    -0.81100
H291        H  0.68194825  0.03556739  0.86952365     0.18100
C292        C  0.65062384  0.02009690  0.70810486    -0.25900
C293        C  0.65043011  0.02219284  0.66185312     0.36100
C294        C  0.66352388  0.99960060  0.63646270    -0.19900
C295        C  0.67710472  0.97590532  0.65809974    -0.25200
C296        C  0.67812412  0.97437808  0.70433209     0.27500
H297        H  0.63992725  0.03696291  0.72762301     0.13300
N298        N  0.63622742  0.04670095  0.64083958    -0.82500
H299        H  0.68746478  0.95871352  0.63881862     0.18100
N300        N  0.69326948  0.95060296  0.72576515    -0.81100
H301        H  0.62573366  0.05997060  0.66422298     0.33700
H302        H  0.65271524  0.05975350  0.62683594     0.38200
H303        H  0.70209435  0.93609959  0.70247705     0.33700
H304        H  0.71108367  0.95958816  0.74294191     0.30400
H305        H  0.69474421  0.05957595  0.80623534     0.33700
H306        H  0.70679419  0.03715154  0.76618673     0.30400
H307        H  0.65763055  0.93149971  0.88162638     0.38300
H308        H  0.63145085  0.92829035  0.84333225     0.33700
C309        C  0.66009052  0.99506855  0.13677579    -0.20000
C310        C  0.68235452  0.01012641  0.16001432     0.36200
C311        C  0.68189301  0.01012180  0.20633647    -0.26000
C312        C  0.65958567  0.99544921  0.22947076     0.02600
C313        C  0.63726890  0.98048371  0.20630506     0.27500
C314        C  0.63788382  0.98021970  0.15996885    -0.25100
N315        N  0.70554489  0.02488388  0.13646693    -0.82500
H316        H  0.69899023  0.02147880  0.22455090     0.13300
C317        C  0.66001728  0.99587235  0.27810784     0.02600
N318        N  0.61398416  0.96596873  0.22995749    -0.81100
H319        H  0.62080816  0.96876796  0.14183193     0.18100
C320        C  0.64381106  0.01734201  0.30057862    -0.25900
C321        C  0.64410007  0.01876020  0.34687822     0.36100
C322        C  0.66122170  0.99836179  0.37090952    -0.19900
C323        C  0.67715929  0.97666360  0.34814775    -0.25200
C324        C  0.67678139  0.97527818  0.30188270     0.27500
H325        H  0.63085427  0.03295111  0.28184889     0.13300
N326        N  0.62669152  0.04044651  0.36948913    -0.82500
H327        H  0.69022691  0.96095472  0.36650516     0.18100
N328        N  0.69360430  0.95333654  0.27884565    -0.81100
H329        H  0.61563624  0.05384202  0.34691805     0.33700
H330        H  0.61047102  0.02929752  0.38740363     0.38200
H331        H  0.70507553  0.94010482  0.30117264     0.33700
H332        H  0.67877690  0.93957320  0.26243771     0.30400
H333        H  0.59906255  0.95639933  0.20798527     0.33700
H334        H  0.62335656  0.94875706  0.24795519     0.30400
H335        H  0.71759470  0.00890162  0.11944604     0.38300
H336        H  0.72015262  0.03489272  0.15848997     0.33700
C337        C  0.74880347  0.99302075  0.00339928    -0.20000
C338        C  0.76587790  0.96950771  0.02009575     0.36200
C339        C  0.79672037  0.97155975  0.01894515    -0.26000
C340        C  0.81064729  0.99614867  0.00064529     0.02600
C341        C  0.79382564  0.01936198  0.98344191     0.27500
C342        C  0.76304743  0.01763864  0.98515657    -0.25100
N343        N  0.75205678  0.94400943  0.03900727    -0.82500
H344        H  0.81003826  0.95380537  0.03193781     0.13300
C345        C  0.84301570  0.99727732  0.99954689     0.02600
N346        N  0.80813492  0.04455837  0.96442103    -0.81100
H347        H  0.75011861  0.03559174  0.97192913     0.18100
C348        C  0.85754597  0.99261660  0.95948478    -0.25900
C349        C  0.88839560  0.99305240  0.95711602     0.36100
C350        C  0.90494050  0.99891208  0.99577677    -0.19900
C351        C  0.89006166  0.00362075  0.03588349    -0.25200
C352        C  0.85922695  0.00290522  0.03809165     0.27500
H353        H  0.84469297  0.98818741  0.93010981     0.13300
N354        N  0.90278814  0.98719868  0.91576399    -0.82500
H355        H  0.90247620  0.00814794  0.06561806     0.18100
N356        N  0.84423136  0.00798160  0.07918260    -0.81100
H357        H  0.88733611  0.98429654  0.89057729     0.33700
H358        H  0.91386701  0.96716987  0.91892614     0.38200
H359        H  0.85937621  0.01164459  0.10455339     0.33700
H360        H  0.83204096  0.02734607  0.07587974     0.30400
H361        H  0.79257133  0.05961506  0.95285930     0.33700
H362        H  0.81979146  0.05514307  0.98957151     0.30400
H363        H  0.74241393  0.93219018  0.01320194     0.38300
H364        H  0.76782785  0.93003148  0.05278805     0.33700
C365        C  0.01441849  0.58125493  0.50378274    -0.20000
C366        C  0.99145408  0.56376852  0.52137160     0.36200
C367        C  0.99332058  0.53299439  0.51850869    -0.26000
C368        C  0.01756189  0.51936199  0.49863357     0.02600
C369        C  0.04029239  0.53660733  0.48048167     0.27500
C370        C  0.03862076  0.56741833  0.48358162    -0.25100
N371        N  0.96655639  0.57720288  0.54265612    -0.82500
H372        H  0.97589991  0.51947475  0.53217392     0.13300
C373        C  0.01856525  0.48689765  0.49716723     0.02600
N374        N  0.06450680  0.52280638  0.45798610    -0.81100
H375        H  0.05607562  0.58070352  0.46953186     0.18100
C376        C  0.00393268  0.47210116  0.46305331    -0.25900
C377        C  0.00257549  0.44123111  0.46229654     0.36100
C378        C  0.01622246  0.42505918  0.49626434    -0.19900
C379        C  0.03144622  0.43984742  0.52982407    -0.25200
C380        C  0.03240526  0.47073690  0.53096147     0.27500
H381        H  0.99323999  0.48472539  0.43734877     0.13300
N382        N  0.98750670  0.42619360  0.42720987    -0.82500
H383        H  0.04170927  0.42726699  0.55597322     0.18100
N384        N  0.04625431  0.48577430  0.56715920    -0.81100
H385        H  0.97860559  0.44128407  0.40490215     0.33700
H386        H  0.00317075  0.41398817  0.40977195     0.38200
H387        H  0.05463572  0.47067163  0.58987923     0.33700
H388        H  0.06430304  0.49738195  0.55474662     0.30400
H389        H  0.07900799  0.53864714  0.44562238     0.33700
H390        H  0.07635408  0.51055802  0.48107493     0.30400
H391        H  0.97421427  0.58762255  0.57118454     0.38300
H392        H  0.95147769  0.56124425  0.55299479     0.33700
C393        C  0.00885518  0.75855543  0.51490742    -0.20000
C394        C  0.03369220  0.77628637  0.52486898     0.36200
C395        C  0.03069744  0.80709774  0.52564581    -0.26000
C396        C  0.00365545  0.82054111  0.51631996     0.02600
C397        C  0.97876877  0.80301236  0.50778554     0.27500
C398        C  0.98161032  0.77230164  0.50709051    -0.25100
N399        N  0.06176317  0.76318576  0.53446775    -0.82500
H400        H  0.04971784  0.82077497  0.53239353     0.13300
C401        C  0.00181966  0.85302575  0.51348906     0.02600
N402        N  0.95069684  0.81657350  0.49972830    -0.81100
H403        H  0.96236854  0.75905957  0.49991956     0.18100
C404        C  0.99479016  0.86596422  0.47290333    -0.25900
C405        C  0.99228007  0.89661408  0.46851322     0.36100
C406        C  0.99740659  0.91484327  0.50561366    -0.19900
C407        C  0.00439218  0.90165531  0.54631688    -0.25200
C408        C  0.00655451  0.87096812  0.55064021     0.27500
H409        H  0.99110778  0.85195880  0.44450153     0.13300
N410        N  0.98442072  0.90908549  0.42658507    -0.82500
H411        H  0.00836368  0.91532178  0.57497413     0.18100
N412        N  0.01337773  0.85793205  0.59258997    -0.81100
H413        H  0.98234408  0.89266889  0.40263210     0.33700
H414        H  0.96356534  0.91853922  0.43005445     0.38200
H415        H  0.01636613  0.87417932  0.61658046     0.33700
H416        H  0.99510266  0.84555409  0.60240588     0.30400
H417        H  0.93457554  0.80064319  0.49377614     0.33700
H418        H  0.94447643  0.82754459  0.52858351     0.30400
H419        H  0.06999406  0.75455548  0.50496875     0.38300
H420        H  0.07687362  0.77919939  0.54448711     0.33700
C421        C  0.00630760  0.42280804  0.00766999    -0.20000
C422        C  0.99025411  0.43806322  0.04034266     0.36200
C423        C  0.99176952  0.46886949  0.04196315    -0.26000
C424        C  0.00802792  0.48477990  0.01064349     0.02600
C425        C  0.02426682  0.46945646  0.97818052     0.27500
C426        C  0.02367317  0.43856559  0.97761340    -0.25100
N427        N  0.97317485  0.42225062  0.07251203    -0.82500
H428        H  0.97982783  0.48062126  0.06740951     0.13300
C429        C  0.00716094  0.51744749  0.01160747     0.02600
N430        N  0.04071136  0.48531067  0.94534579    -0.81100
H431        H  0.03597242  0.42673356  0.95262686     0.18100
C432        C  0.03358020  0.53337768  0.01296620    -0.25900
C433        C  0.03370179  0.56427079  0.01203051     0.36100
C434        C  0.00657837  0.57969953  0.01140919    -0.19900
C435        C  0.98015265  0.56357976  0.01102055    -0.25200
C436        C  0.98014784  0.53272647  0.01053618     0.27500
H437        H  0.05428075  0.52157843  0.01417241     0.13300
N438        N  0.06129707  0.57978600  0.01133431    -0.82500
H439        H  0.95927294  0.57506385  0.01043472     0.18100
N440        N  0.95279727  0.51684375  0.00825922    -0.81100
H441        H  0.07895107  0.56515403  0.01396802     0.33700
H442        H  0.06327743  0.58966919  0.98033440     0.38200
H443        H  0.93492457  0.53131440  0.00799141     0.33700
H444        H  0.95239194  0.50561439  0.97816493     0.30400
H445        H  0.05144539  0.47077131  0.92399628     0.33700
H446        H  0.02566555  0.49710584  0.92620979     0.30400
H447        H  0.95504028  0.41315700  0.05626657     0.38300
H448        H  0.96455118  0.43667069  0.09607211     0.33700
C449        C  0.01305452  0.66662797  0.64163330    -0.20000
C450        C  0.03647347  0.67802772  0.66713172     0.36200
C451        C  0.03470111  0.67685541  0.71339693    -0.26000
C452        C  0.01008786  0.66459894  0.73455373     0.02600
C453        C  0.98692865  0.65289052  0.70912713     0.27500
C454        C  0.98855835  0.65423052  0.66299961    -0.25100
N455        N  0.06157497  0.69133389  0.64618204    -0.82500
H456        H  0.05231331  0.68607985  0.73314362     0.13300
C457        C  0.00850230  0.66477449  0.78338462     0.02600
N458        N  0.96194095  0.63952659  0.73030883    -0.81100
H459        H  0.97066893  0.64522885  0.64358690     0.18100
C460        C  0.98474599  0.67880888  0.80418913    -0.25900
C461        C  0.98252987  0.67974419  0.85036612     0.36100
C462        C  0.00469997  0.66644831  0.87619940    -0.19900
C463        C  0.02853608  0.65256354  0.85530912    -0.25200
C464        C  0.03049625  0.65129561  0.80913797     0.27500
H465        H  0.96806212  0.68940484  0.78422462     0.13300
N466        N  0.95822268  0.69464499  0.87098993    -0.82500
H467        H  0.04543494  0.64217955  0.87511372     0.18100
N468        N  0.05450120  0.63608871  0.78825954    -0.81100
H469        H  0.94375307  0.70291103  0.84723793     0.33700
H470        H  0.96670787  0.71281535  0.88789382     0.38200
H471        H  0.06881878  0.62741492  0.81188973     0.33700
H472        H  0.04566210  0.61820193  0.77109970     0.30400
H473        H  0.94675952  0.63211302  0.70689729     0.33700
H474        H  0.96945166  0.62093225  0.74713469     0.30400
H475        H  0.05428105  0.71031393  0.63011019     0.38300
H476        H  0.07693211  0.69819045  0.66971825     0.33700
C477        C  0.00031149  0.67090633  0.14126326    -0.20000
C478        C  0.98057628  0.65371642  0.16645697     0.36200
C479        C  0.98239187  0.65444033  0.21273205    -0.26000
C480        C  0.00292853  0.67250886  0.23424222     0.02600
C481        C  0.02213398  0.69018404  0.20905059     0.27500
C482        C  0.02090481  0.68886213  0.16284905    -0.25100
N483        N  0.95967221  0.63467989  0.14515455    -0.82500
H484        H  0.96789417  0.64065004  0.23219170     0.13300
C485        C  0.00455696  0.67226366  0.28314240     0.02600
N486        N  0.04269599  0.70949832  0.23053923    -0.81100
H487        H  0.03588176  0.70222492  0.14351387     0.18100
C488        C  0.03137676  0.66542040  0.30360545    -0.25900
C489        C  0.03399820  0.66490474  0.34976554     0.36100
C490        C  0.00915540  0.67154386  0.37613798    -0.19900
C491        C  0.98221567  0.67802366  0.35545406    -0.25200
C492        C  0.97968762  0.67858883  0.30930927     0.27500
H493        H  0.05029444  0.66005222  0.28334115     0.13300
N494        N  0.06165168  0.65720463  0.36969737    -0.82500
H495        H  0.96304833  0.68307356  0.37535315     0.18100
N496        N  0.95206812  0.68587856  0.28891469    -0.81100
H497        H  0.07776608  0.65373449  0.34559455     0.33700
H498        H  0.05874688  0.63709547  0.38582244     0.38200
H499        H  0.93590399  0.68975084  0.31279525     0.33700
H500        H  0.95496672  0.70561587  0.27179348     0.30400
H501        H  0.05531573  0.72089382  0.20729306     0.33700
H502        H  0.03052217  0.72526456  0.24779418     0.30400
H503        H  0.94376954  0.64800165  0.13034145     0.40300
H504        H  0.94845186  0.62195360  0.16846121     0.33700
C505        C  0.99841589  0.75661115  0.00522895    -0.20000
C506        C  0.02055664  0.77386452  0.02531457     0.36200
C507        C  0.01910196  0.80460520  0.02230620    -0.26000
C508        C  0.99590788  0.81842075  0.00006983     0.02600
C509        C  0.97362886  0.80131484  0.98034496     0.27500
C510        C  0.97506575  0.77050709  0.98320958    -0.25100
N511        N  0.04415883  0.76016248  0.04928072    -0.82500
H512        H  0.03607445  0.81794668  0.03751367     0.13300
C513        C  0.99511913  0.85091493  0.99839252     0.02600
N514        N  0.94965963  0.81533533  0.95768058    -0.81100
H515        H  0.95810848  0.75728131  0.96775014     0.18100
C516        C  0.99777098  0.86520565  0.95767763    -0.25900
C517        C  0.99742556  0.89605904  0.95485420     0.36100
C518        C  0.99463783  0.91296913  0.99394241    -0.19900
C519        C  0.99213139  0.89834815  0.03469010    -0.25200
C520        C  0.99220305  0.86756707  0.03726867     0.27500
H521        H  0.00016963  0.85215131  0.92797709     0.13300
N522        N  0.00025357  0.91003102  0.91253510    -0.82500
H523        H  0.98989868  0.91094300  0.06483849     0.18100
N524        N  0.98920318  0.85308238  0.07918890    -0.81100
H525        H  0.00409556  0.89444003  0.88784692     0.33700
H526        H  0.97994071  0.91963347  0.90513206     0.38200
H527        H  0.98747337  0.86847543  0.10467995     0.33700
H528        H  0.96938492  0.84137255  0.07873552     0.30400
H529        H  0.93521944  0.79963207  0.94476227     0.33700
H530        H  0.93772698  0.82740447  0.98097621     0.30400
H531        H  0.03492491  0.74956589  0.07660262     0.38300
H532        H  0.05867498  0.77597918  0.06168535     0.33700
C533        C  0.41922673  0.98859177  0.48740333    -0.20000
C534        C  0.43550728  0.00475672  0.45606522     0.36200
C535        C  0.46641208  0.00376977  0.45730516    -0.26000
C536        C  0.48100538  0.98694120  0.48920170     0.02600
C537        C  0.46475168  0.97032953  0.51990807     0.27500
C538        C  0.43389295  0.97106329  0.51838918    -0.25100
N539        N  0.42058428  0.02191535  0.42313969    -0.82500
H540        H  0.47919820  0.01646091  0.43386762     0.13300
C541        C  0.51332103  0.98854015  0.49223423     0.02600
N542        N  0.47969339  0.95367921  0.55338910    -0.81100
H543        H  0.42121389  0.95867574  0.54232432     0.18100
C544        C  0.52586266  0.01018623  0.51913954    -0.25900
C545        C  0.55651056  0.01241535  0.52373918     0.36100
C546        C  0.57482380  0.99251079  0.50083398    -0.19900
C547        C  0.56214667  0.97067123  0.47412167    -0.25200
C548        C  0.53145061  0.96862966  0.46931807     0.27500
H549        H  0.51160770  0.02528357  0.53673298     0.13300
N550        N  0.56906608  0.03452966  0.55195459    -0.82500
H551        H  0.57625720  0.95562433  0.45618456     0.18100
N552        N  0.51863763  0.94694013  0.44063711    -0.81100
H553        H  0.55254084  0.04746211  0.56611113     0.33700
H554        H  0.57964753  0.02374433  0.57793731     0.38200
H555        H  0.53508903  0.93437013  0.42556677     0.33700
H556        H  0.50631455  0.93249390  0.46006908     0.30400
H557        H  0.46448737  0.94325218  0.57406729     0.33700
H558        H  0.49158779  0.93702355  0.53772837     0.30400
H559        H  0.40873162  0.00739636  0.40313581     0.38300
H560        H  0.43580126  0.03247296  0.40263334     0.33700
C561        C  0.24234593  0.99526467  0.49354344    -0.20000
C562        C  0.22478469  0.96983767  0.48683547     0.36200
C563        C  0.19399969  0.97248505  0.48621324    -0.26000
C564        C  0.18035646  0.99963970  0.49315235     0.02600
C565        C  0.19755318  0.02489599  0.50043949     0.27500
C566        C  0.22837663  0.02249968  0.50040691    -0.25100
N567        N  0.23802756  0.94144479  0.48045759    -0.82500
H568        H  0.18045331  0.95315602  0.48108903     0.13300
C569        C  0.14789192  0.00102300  0.49391974     0.02600
N570        N  0.18358678  0.05283775  0.50769519    -0.81100
H571        H  0.24151113  0.04205734  0.50580177     0.18100
C572        C  0.13358511  0.00622089  0.53402585    -0.25900
C573        C  0.10272875  0.00634343  0.53678435     0.36100
C574        C  0.08580525  0.00178501  0.49805401    -0.19900
C575        C  0.10045241  0.99675707  0.45780639    -0.25200
C576        C  0.13131888  0.99625395  0.45541459     0.27500
H577        H  0.14664872  0.00959097  0.56350567     0.13300
N578        N  0.08877047  0.01109588  0.57877763    -0.82500
H579        H  0.08782341  0.99315934  0.42799338     0.18100
N580        N  0.14596655  0.99097410  0.41410124    -0.81100
H581        H  0.10440864  0.01592888  0.60302321     0.33700
H582        H  0.07903199  0.99123239  0.58819818     0.38200
H583        H  0.13061966  0.98770690  0.38890535     0.33700
H584        H  0.15773558  0.01000044  0.40600263     0.30400
H585        H  0.19933818  0.06924405  0.51280138     0.33700
H586        H  0.17231829  0.05839554  0.47880116     0.30400
H587        H  0.24719591  0.93510327  0.51060983     0.38300
H588        H  0.22202942  0.92566152  0.47303752     0.33700
C589        C  0.57212619  0.99402216  0.00030779    -0.20000
C590        C  0.55470756  0.97491174  0.02609634     0.36200
C591        C  0.52398012  0.97565495  0.02156579    -0.26000
C592        C  0.51050765  0.99461694  0.99125813     0.02600
C593        C  0.52793817  0.01352692  0.96523822     0.27500
C594        C  0.55861789  0.01332715  0.97051015    -0.25100
N595        N  0.56811527  0.95575635  0.05799928    -0.82500
H596        H  0.51039512  0.96156893  0.04200969     0.13300
C597        C  0.47801113  0.99542593  0.98884528     0.02600
N598        N  0.51438978  0.03262659  0.93340987    -0.81100
H599        H  0.57213179  0.02778316  0.95053604     0.18100
C600        C  0.46351991  0.02176747  0.99863905    -0.25900
C601        C  0.43270319  0.02330591  0.99944350     0.36100
C602        C  0.41595148  0.99782372  0.98966487    -0.19900
C603        C  0.43063865  0.97146857  0.97955072    -0.25200
C604        C  0.46151437  0.97004271  0.97889902     0.27500
H605        H  0.47640349  0.04107022  0.00686190     0.13300
N606        N  0.41856041  0.05052013  0.01102617    -0.82500
H607        H  0.41801996  0.95192005  0.97180755     0.18100
N608        N  0.47622182  0.94300534  0.96805991    -0.81100
H609        H  0.43409434  0.06720000  0.01569718     0.33700
H610        H  0.40819884  0.04741872  0.04150115     0.38200
H611        H  0.46091079  0.92634761  0.96177894     0.33700
H612        H  0.48783451  0.94639329  0.93870348     0.30400
H613        H  0.53031449  0.04516530  0.91705069     0.33700
H614        H  0.50440562  0.01935887  0.90953984     0.30400
H615        H  0.57933016  0.93933808  0.04072354     0.38300
H616        H  0.55199672  0.94495724  0.07658662     0.33700
C617        C  0.33138868  0.99393315  0.62394671    -0.20000
C618        C  0.32334420  0.01958234  0.64753008     0.36200
C619        C  0.32347767  0.01915306  0.69380816    -0.26000
C620        C  0.33118502  0.99371731  0.71706102     0.02600
C621        C  0.33915208  0.96810700  0.69380385     0.27500
C622        C  0.33902198  0.96842076  0.64745361    -0.25100
N623        N  0.31453298  0.04580936  0.62461763    -0.82500
H624        H  0.31707811  0.03865401  0.71199077     0.13300
C625        C  0.33044430  0.99432681  0.76586533     0.02600
N626        N  0.34760566  0.94203779  0.71738579    -0.81100
H627        H  0.34529783  0.94874714  0.62962682     0.18100
C628        C  0.31089073  0.97579538  0.78842625    -0.25900
C629        C  0.30908799  0.97627898  0.83469457     0.36100
C630        C  0.32693314  0.99614029  0.85861607    -0.19900
C631        C  0.34618477  0.01491749  0.83590190    -0.25200
C632        C  0.34841959  0.01393203  0.78975969     0.27500
H633        H  0.29688533  0.96104102  0.76976862     0.13300
N634        N  0.28842972  0.95755414  0.85717487    -0.82500
H635        H  0.36004640  0.02992586  0.85434724     0.18100
N636        N  0.36904031  0.03252828  0.76700430    -0.81100
H637        H  0.27534919  0.94620540  0.83445616     0.33700
H638        H  0.30047690  0.94152587  0.87395858     0.38200
H639        H  0.38057733  0.04569860  0.78938009     0.33700
H640        H  0.38458516  0.01891359  0.75183317     0.30400
H641        H  0.35278557  0.92508878  0.69540915     0.33700
H642        H  0.36690719  0.94685412  0.73473497     0.30400
H643        H  0.29477261  0.04118313  0.60835077     0.38300
H644        H  0.30997290  0.06276401  0.64690558     0.33700
C645        C  0.32991093  0.00070020  0.12387869    -0.20000
C646        C  0.32135455  0.02521942  0.14962129     0.36200
C647        C  0.32170148  0.02298899  0.19588346    -0.26000
C648        C  0.33114324  0.99719666  0.21690510     0.02600
C649        C  0.34042406  0.97306530  0.19135500     0.27500
C650        C  0.33939988  0.97495416  0.14523613    -0.25100
N651        N  0.31168215  0.05198127  0.12903328    -0.82500
H652        H  0.31452541  0.04145429  0.21576024     0.13300
C653        C  0.33120471  0.99570157  0.26574592     0.02600
N654        N  0.35105314  0.94681257  0.21239692    -0.81100
H655        H  0.34638037  0.95619440  0.12584773     0.18100
C656        C  0.31507752  0.97349758  0.28701069    -0.25900
C657        C  0.31490512  0.97109568  0.33322089     0.36100
C658        C  0.33058778  0.99191023  0.35856768    -0.19900
C659        C  0.34647743  0.01425158  0.33721031    -0.25200
C660        C  0.34731711  0.01610813  0.29105902     0.27500
H661        H  0.30256097  0.95799470  0.26737574     0.13300
N662        N  0.29801719  0.94834474  0.35432123    -0.82500
H663        H  0.35872204  0.03007204  0.35667372     0.18100
N664        N  0.36469853  0.03840664  0.26975884    -0.81100
H665        H  0.28614323  0.93628504  0.33094480     0.33700
H666        H  0.31288369  0.93359663  0.36848035     0.38200
H667        H  0.37514167  0.05171731  0.29313485     0.33700
H668        H  0.38137288  0.02780917  0.25206546     0.30400
H669        H  0.35689814  0.93101943  0.18890544     0.33700
H670        H  0.37032637  0.95229196  0.22936510     0.30400
H671        H  0.33008855  0.06167800  0.11427227     0.38300
H672        H  0.30429446  0.06697487  0.15274030     0.33700
C673        C  0.23867779  0.00159231  0.99320192    -0.20000
C674        C  0.22278163  0.02808445  0.99977493     0.36200
C675        C  0.19190528  0.02726231  0.00112460    -0.26000
C676        C  0.17665654  0.00087543  0.99507838     0.02600
C677        C  0.19219817  0.97456349  0.98820896     0.27500
C678        C  0.22306978  0.97513988  0.98751125    -0.25100
N679        N  0.23780047  0.05567186  0.00541577    -0.82500
H680        H  0.17956412  0.04737667  0.00614895     0.13300
C681        C  0.14424398  0.00124858  0.99509847     0.02600
N682        N  0.17649320  0.94742895  0.98194518    -0.81100
H683        H  0.23495409  0.95479619  0.98226320     0.18100
C684        C  0.12933855  0.99817918  0.95504850    -0.25900
C685        C  0.09846950  0.99827138  0.95347421     0.36100
C686        C  0.08222547  0.00195673  0.99308356    -0.19900
C687        C  0.09748923  0.00509540  0.03319277    -0.25200
C688        C  0.12836175  0.00464456  0.03456993     0.27500
H689        H  0.14193699  0.99549927  0.92492916     0.13300
N690        N  0.08378890  0.99440315  0.91186026    -0.82500
H691        H  0.08534265  0.00784949  0.06368120     0.18100
N692        N  0.14371621  0.00753623  0.07579848    -0.81100
H693        H  0.09902704  0.99334259  0.88604161     0.33700
H694        H  0.07325438  0.97395800  0.91269713     0.38200
H695        H  0.12879471  0.01001741  0.10182531     0.33700
H696        H  0.15497266  0.98785886  0.08145270     0.30400
H697        H  0.19118151  0.93005496  0.97694913     0.33700
H698        H  0.16515366  0.94286080  0.01118449     0.30400
H699        H  0.24687409  0.06137562  0.97489340     0.38300
H700        H  0.22286993  0.07238370  0.01321162     0.33700
loop_ 
_geom_bond_atom_site_label_1 
_geom_bond_atom_site_label_2 
_geom_bond_distance 
_geom_bond_site_symmetry_2 
_ccdc_geom_bond_type 
O1            V9   1.900       .  S
O1           C11   1.266   1_565  A
O2            V9   1.901       .  S
O2           C12   1.266       .  A
O3            V9   1.891   1_554  S
O3           C13   1.263   1_565  A
O4            V9   1.892       .  S
O4           C14   1.262       .  A
O5           V10   1.902       .  S
O5           C14   1.266   1_545  A
O6           V10   1.903   1_554  S
O6           C13   1.265       .  A
O7           V10   1.888       .  S
O7           C12   1.262   1_545  A
O8           V10   1.890       .  S
O8           C11   1.262       .  A
V9           V10   2.084   1_565  T
C11         C673   1.483       .  S
C12         C602   1.482       .  S
C13         C645   1.484       .  S
C14         C630   1.475       .  S
O15          V23   1.892       .  S
O15          C25   1.262       .  A
O16          V23   1.894       .  S
O16          C26   1.262       .  A
O17          V23   1.901       .  S
O17          C27   1.266       .  A
O18          V23   1.902       .  S
O18          C28   1.265       .  A
O19          V24   1.890       .  S
O19          C28   1.262   1_545  A
O20          V24   1.894       .  S
O20          C27   1.263   1_545  A
O21          V24   1.899       .  S
O21          C26   1.264   1_545  A
O22          V24   1.901       .  S
O22          C25   1.266   1_545  A
V23          V24   2.086   1_565  T
C25         C561   1.486       .  S
C26         C533   1.469       .  S
C27         C617   1.483       .  S
C28         C658   1.476       .  S
O29          V37   1.897   1_556  S
O29          C39   1.264       .  A
O30          V37   1.895       .  S
O30          C40   1.264       .  A
O31          V37   1.895       .  S
O31          C41   1.263       .  A
O32          V37   1.893       .  S
O32          C42   1.263   1_455  A
O33          V38   1.902       .  S
O33          C42   1.265       .  A
O34          V38   1.900       .  S
O34          C41   1.266   1_655  A
O35          V38   1.900       .  S
O35          C40   1.264   1_655  A
O36          V38   1.897   1_556  S
O36          C39   1.264   1_655  A
V37          V38   2.085   1_455  T
C39         C462   1.477       .  S
C40         C477   1.477       .  S
C41         C434   1.488       .  S
C42         C505   1.478       .  S
O43          V51   1.894       .  S
O43          C53   1.264   1_655  A
O44          V51   1.891       .  S
O44          C54   1.263   1_655  A
O45          V51   1.899       .  S
O45          C55   1.266   1_655  A
O46          V51   1.898       .  S
O46          C56   1.264   1_655  A
O47          V52   1.902       .  S
O47          C56   1.265       .  A
O48          V52   1.902       .  S
O48          C55   1.265       .  A
O49          V52   1.902       .  S
O49          C54   1.265       .  A
O50          V52   1.901       .  S
O50          C53   1.265       .  A
V51          V52   2.085   1_655  T
C53         C490   1.484       .  S
C54         C449   1.479       .  S
C55         C393   1.490       .  S
C56         C365   1.484       .  S
O57          V65   1.896       .  S
O57          C67   1.263       .  A
O58          V65   1.891       .  S
O58          C68   1.262       .  A
O59          V65   1.901   1_556  S
O59          C69   1.265       .  A
O60          V65   1.898       .  S
O60          C70   1.263       .  A
O61          V66   1.899       .  S
O61          C70   1.264   1_545  A
O62          V66   1.894   1_556  S
O62          C69   1.264   1_545  A
O63          V66   1.898       .  S
O63          C68   1.264   1_545  A
O64          V66   1.892       .  S
O64          C67   1.264   1_545  A
V65          V66   2.087   1_565  T
C67         C337   1.479       .  S
C68         C589   1.470       .  S
C69         C281   1.483       .  S
C70         C309   1.470       .  S
O71          V79   1.899       .  S
O71          C81   1.265   1_545  A
O72          V79   1.899       .  S
O72          C82   1.264   1_545  A
O73          V79   1.899       .  S
O73          C83   1.264       .  A
O74          V79   1.894       .  S
O74          C84   1.263   1_545  A
O75          V80   1.899       .  S
O75          C84   1.264       .  A
O76          V80   1.895       .  S
O76          C83   1.265   1_565  A
O77          V80   1.898       .  S
O77          C82   1.265       .  A
O78          V80   1.896       .  S
O78          C81   1.264       .  A
V79          V80   2.085   1_545  T
C81         C322   1.478       .  S
C82         C294   1.482       .  S
C83         C253   1.487       .  S
C84         C546   1.474       .  S
O85          V93   1.899       .  S
O85          C95   1.265       .  A
O86          V93   1.900   1_565  S
O86          C96   1.264       .  A
O87          V93   1.892       .  S
O87          C97   1.263       .  A
O88          V93   1.891   1_455  S
O88          C98   1.262       .  A
O89          V94   1.898   1_455  S
O89          C98   1.265   1_554  A
O90          V94   1.897       .  S
O90          C97   1.265   1_554  A
O91          V94   1.894   1_565  S
O91          C96   1.264   1_554  A
O92          V94   1.895       .  S
O92          C95   1.263   1_554  A
V93          V94   2.084   1_556  T
C95         C238   1.487       .  S
C96         C518   1.488       .  S
C97         C350   1.482   1_545  S
C98         C686   1.484       .  S
O99         V107   1.893   1_455  S
O99         C109   1.263       .  A
O100        V107   1.892       .  S
O100        C110   1.263       .  A
O101        V107   1.897   1_565  S
O101        C111   1.264       .  A
O102        V107   1.893       .  S
O102        C112   1.264       .  A
O103        V108   1.902       .  S
O103        C112   1.264       .  A
O104        V108   1.902   1_565  S
O104        C111   1.266       .  A
O105        V108   1.903       .  S
O105        C110   1.266       .  A
O106        V108   1.900   1_455  S
O106        C109   1.266       .  A
V107        V108   2.084       .  T
C109        C574   1.486       .  S
C110        C266   1.482       .  S
C111        C406   1.489       .  S
C112        C210   1.479       .  S
O113        V121   1.893   1_556  S
O113        C123   1.263   1_655  A
O114        V121   1.894       .  S
O114        C124   1.262   1_655  A
O115        V121   1.904   1_556  S
O115        C125   1.265       .  A
O116        V121   1.897       .  S
O116        C126   1.264   1_655  A
O117        V122   1.899   1_554  S
O117        C126   1.265       .  A
O118        V122   1.894       .  S
O118        C125   1.264   1_455  A
O119        V122   1.903       .  S
O119        C124   1.265   1_556  A
O120        V122   1.899       .  S
O120        C123   1.264       .  A
V121        V122   2.086   1_654  T
C123        C225   1.476   1_455  S
C124        C421   1.474       .  S
C125        C141   1.482       .  S
C126        C182   1.486       .  S
O127        V135   1.898       .  S
O127        C137   1.264   1_655  A
O128        V135   1.898       .  S
O128        C138   1.264   1_655  A
O129        V135   1.895       .  S
O129        C139   1.263   1_655  A
O130        V135   1.901       .  S
O130        C140   1.265   1_655  A
O131        V136   1.897       .  S
O131        C140   1.264       .  A
O132        V136   1.901       .  S
O132        C139   1.264       .  A
O133        V136   1.902       .  S
O133        C138   1.264       .  A
O134        V136   1.898       .  S
O134        C137   1.265       .  A
V135        V136   2.087   1_655  T
C137        C197   1.489       .  S
C138        C378   1.472       .  S
C139        C169   1.475       .  S
C140        C154   1.480       .  S
C141        C142   1.414       .  A
C141        C146   1.405   1_655  A
C142        C143   1.408       .  A
C142        N147   1.438       .  S
C143        C144   1.404       .  A
C143        H148   1.084       .  S
C144        C149   1.485       .  S
C144        C145   1.409   1_655  A
C145        C146   1.403       .  A
C145        N150   1.438       .  S
C146        H151   1.084       .  S
N147        H167   1.045       .  S
N147        H168   1.046       .  S
C149        C152   1.403   1_655  A
C149        C156   1.410       .  A
N150        H165   1.046       .  S
N150        H166   1.046       .  S
C152        C153   1.404       .  A
C152        H157   1.084       .  S
C153        C154   1.413       .  A
C153        N158   1.438       .  S
C154        C155   1.406   1_455  A
C155        C156   1.407       .  A
C155        H159   1.084       .  S
C156        N160   1.438       .  S
N158        H161   1.045       .  S
N158        H162   1.046       .  S
N160        H163   1.046       .  S
N160        H164   1.046       .  S
C169        C170   1.413       .  A
C169        C174   1.402   1_455  A
C170        C171   1.407       .  A
C170        N175   1.438       .  S
C171        C172   1.403       .  A
C171        H176   1.084       .  S
C172        C177   1.483       .  S
C172        C173   1.410   1_455  A
C173        C174   1.402       .  A
C173        N178   1.438       .  S
C174        H179   1.084       .  S
N175        H195   1.045       .  S
N175        H196   1.046       .  S
C177        C180   1.401   1_455  A
C177        C184   1.409       .  A
N178        H193   1.046       .  S
N178        H194   1.046       .  S
C180        C181   1.404       .  A
C180        H185   1.084       .  S
C181        C182   1.416   1_655  A
C181        N186   1.438       .  S
C182        C183   1.407       .  A
C183        C184   1.406       .  A
C183        H187   1.083       .  S
C184        N188   1.438       .  S
N186        H189   1.046       .  S
N186        H190   1.046       .  S
N188        H191   1.046       .  S
N188        H192   1.046       .  S
C197        C198   1.418   1_455  A
C197        C202   1.408       .  A
C198        C199   1.405       .  A
C198        N203   1.438       .  S
C199        C200   1.400   1_655  A
C199        H204   1.084       .  S
C200        C205   1.481   1_455  S
C200        C201   1.407       .  A
C201        C202   1.404       .  A
C201        N206   1.438       .  S
C202        H207   1.083       .  S
N203        H223   1.045       .  S
N203        H224   1.046       .  S
C205        C208   1.403   1_655  A
C205        C212   1.408       .  A
N206        H221   1.046       .  S
N206        H222   1.046       .  S
C208        C209   1.406       .  A
C208        H213   1.084       .  S
C209        C210   1.414   1_455  A
C209        N214   1.438       .  S
C210        C211   1.405       .  A
C211        C212   1.403       .  A
C211        H215   1.084       .  S
C212        N216   1.438       .  S
N214        H217   1.046       .  S
N214        H218   1.045       .  S
N216        H219   1.045       .  S
N216        H220   1.046       .  S
C225        C226   1.413   1_655  A
C225        C230   1.405   1_556  A
C226        C227   1.404       .  A
C226        N231   1.438       .  S
C227        C228   1.402   1_455  A
C227        H232   1.084       .  S
C228        C233   1.477       .  S
C228        C229   1.408   1_556  A
C229        C230   1.403       .  A
C229        N234   1.438       .  S
C230        H235   1.084       .  S
N231        H251   1.046       .  S
N231        H252   1.046       .  S
C233        C236   1.399   1_556  A
C233        C240   1.407       .  A
N234        H249   1.046       .  S
N234        H250   1.046       .  S
C236        C237   1.404       .  A
C236        H241   1.084       .  S
C237        C238   1.418   1_554  A
C237        N242   1.438   1_655  S
C238        C239   1.408       .  A
C239        C240   1.404       .  A
C239        H243   1.083       .  S
C240        N244   1.438       .  S
N242        H245   1.046       .  S
N242        H246   1.045       .  S
N244        H247   1.046       .  S
N244        H248   1.046       .  S
C253        C254   1.419       .  A
C253        C258   1.406   1_545  A
C254        C255   1.407       .  A
C254        N259   1.438       .  S
C255        C256   1.401       .  A
C255        H260   1.084       .  S
C256        C261   1.480       .  S
C256        C257   1.408   1_545  A
C257        C258   1.401       .  A
C257        N262   1.438       .  S
C258        H263   1.083       .  S
N259        H279   1.046       .  S
N259        H280   1.046       .  S
C261        C264   1.400   1_545  A
C261        C268   1.409       .  A
N262        H277   1.045       .  S
N262        H278   1.046       .  S
C264        C265   1.402       .  A
C264        H269   1.084       .  S
C265        C266   1.415   1_565  A
C265        N270   1.438       .  S
C266        C267   1.406       .  A
C267        C268   1.406       .  A
C267        H271   1.083       .  S
C268        N272   1.438       .  S
N270        H273   1.046       .  S
N270        H274   1.046       .  S
N272        H275   1.045       .  S
N272        H276   1.046       .  S
C281        C282   1.415       .  A
C281        C286   1.406   1_565  A
C282        C283   1.406       .  A
C282        N287   1.438       .  S
C283        C284   1.403       .  A
C283        H288   1.084       .  S
C284        C289   1.485       .  S
C284        C285   1.410   1_565  A
C285        C286   1.403       .  A
C285        N290   1.438       .  S
C286        H291   1.084       .  S
N287        H307   1.046       .  S
N287        H308   1.045       .  S
C289        C292   1.403   1_565  A
C289        C296   1.410       .  A
N290        H305   1.046       .  S
N290        H306   1.045       .  S
C292        C293   1.406       .  A
C292        H297   1.084       .  S
C293        C294   1.415   1_545  A
C293        N298   1.438       .  S
C294        C295   1.405       .  A
C295        C296   1.404       .  A
C295        H299   1.084       .  S
C296        N300   1.438       .  S
N298        H301   1.046       .  S
N298        H302   1.045       .  S
N300        H303   1.046       .  S
N300        H304   1.045       .  S
C309        C310   1.410   1_565  A
C309        C314   1.402       .  A
C310        C311   1.404       .  A
C310        N315   1.438       .  S
C311        C312   1.401   1_545  A
C311        H316   1.084       .  S
C312        C317   1.475       .  S
C312        C313   1.408       .  A
C313        C314   1.405       .  A
C313        N318   1.438       .  S
C314        H319   1.084       .  S
N315        H335   1.046       .  S
N315        H336   1.046       .  S
C317        C320   1.400   1_565  A
C317        C324   1.407       .  A
N318        H333   1.045       .  S
N318        H334   1.046       .  S
C320        C321   1.405       .  A
C320        H325   1.084       .  S
C321        C322   1.414   1_545  A
C321        N326   1.438       .  S
C322        C323   1.405       .  A
C323        C324   1.404       .  A
C323        H327   1.084       .  S
C324        N328   1.438       .  S
N326        H329   1.046       .  S
N326        H330   1.046       .  S
N328        H331   1.046       .  S
N328        H332   1.045       .  S
C337        C338   1.416       .  A
C337        C342   1.406   1_564  A
C338        C339   1.404       .  A
C338        N343   1.438       .  S
C339        C340   1.399       .  A
C339        H344   1.084       .  S
C340        C345   1.471   1_554  S
C340        C341   1.405   1_564  A
C341        C342   1.401       .  A
C341        N346   1.438       .  S
C342        H347   1.084       .  S
N343        H363   1.045       .  S
N343        H364   1.046       .  S
C345        C348   1.398       .  A
C345        C352   1.405   1_566  A
N346        H361   1.046       .  S
N346        H362   1.046       .  S
C348        C349   1.403       .  A
C348        H353   1.084       .  S
C349        C350   1.418       .  A
C349        N354   1.438       .  S
C350        C351   1.407   1_566  A
C351        C352   1.402       .  A
C351        H355   1.083       .  S
C352        N356   1.438       .  S
N354        H357   1.046       .  S
N354        H358   1.046       .  S
N356        H359   1.046       .  S
N356        H360   1.046       .  S
C365        C366   1.415   1_455  A
C365        C370   1.407       .  A
C366        C367   1.405       .  A
C366        N371   1.438       .  S
C367        C368   1.400   1_655  A
C367        H372   1.084       .  S
C368        C373   1.478       .  S
C368        C369   1.408       .  A
C369        C370   1.407       .  A
C369        N374   1.438       .  S
C370        H375   1.084       .  S
N371        H391   1.046       .  S
N371        H392   1.046       .  S
C373        C376   1.401       .  A
C373        C380   1.410       .  A
N374        H389   1.045       .  S
N374        H390   1.045       .  S
C376        C377   1.406       .  A
C376        H381   1.084   1_455  S
C377        C378   1.410       .  A
C377        N382   1.438   1_455  S
C378        C379   1.402       .  A
C379        C380   1.406       .  A
C379        H383   1.084       .  S
C380        N384   1.438       .  S
N382        H385   1.046       .  S
N382        H386   1.046   1_655  S
N384        H387   1.045       .  S
N384        H388   1.045       .  S
C393        C394   1.419       .  A
C393        C398   1.407   1_455  A
C394        C395   1.409       .  A
C394        N399   1.438       .  S
C395        C396   1.402       .  A
C395        H400   1.084       .  S
C396        C401   1.483       .  S
C396        C397   1.407   1_455  A
C397        C398   1.403       .  A
C397        N402   1.438       .  S
C398        H403   1.083       .  S
N399        H419   1.045       .  S
N399        H420   1.046       .  S
C401        C404   1.401   1_455  A
C401        C408   1.407       .  A
N402        H417   1.046       .  S
N402        H418   1.046       .  S
C404        C405   1.405       .  A
C404        H409   1.084       .  S
C405        C406   1.416       .  A
C405        N410   1.438       .  S
C406        C407   1.409   1_655  A
C407        C408   1.406       .  A
C407        H411   1.083       .  S
C408        N412   1.438       .  S
N410        H413   1.046       .  S
N410        H414   1.046       .  S
N412        H415   1.046       .  S
N412        H416   1.046   1_455  S
C421        C422   1.412   1_455  A
C421        C426   1.402   1_554  A
C422        C423   1.404       .  A
C422        N427   1.438       .  S
C423        C424   1.403   1_655  A
C423        H428   1.084       .  S
C424        C429   1.487       .  S
C424        C425   1.413   1_554  A
C425        C426   1.406       .  A
C425        N430   1.438       .  S
C426        H431   1.084       .  S
N427        H447   1.045       .  S
N427        H448   1.046       .  S
C429        C432   1.402       .  A
C429        C436   1.411   1_455  A
N430        H445   1.046       .  S
N430        H446   1.045       .  S
C432        C433   1.406       .  A
C432        H437   1.084       .  S
C433        C434   1.418       .  A
C433        N438   1.438       .  S
C434        C435   1.406   1_455  A
C435        C436   1.404       .  A
C435        H439   1.083       .  S
C436        N440   1.438       .  S
N438        H441   1.046       .  S
N438        H442   1.046   1_554  S
N440        H443   1.046       .  S
N440        H444   1.046   1_554  S
C449        C450   1.414       .  A
C449        C454   1.405   1_455  A
C450        C451   1.406       .  A
C450        N455   1.438       .  S
C451        C452   1.404       .  A
C451        H456   1.084       .  S
C452        C457   1.482       .  S
C452        C453   1.409   1_455  A
C453        C454   1.402       .  A
C453        N458   1.438       .  S
C454        H459   1.084       .  S
N455        H475   1.046       .  S
N455        H476   1.046       .  S
C457        C460   1.403   1_455  A
C457        C464   1.409       .  A
N458        H473   1.046       .  S
N458        H474   1.046       .  S
C460        C461   1.404       .  A
C460        H465   1.084       .  S
C461        C462   1.413   1_655  A
C461        N466   1.438       .  S
C462        C463   1.404       .  A
C463        C464   1.404       .  A
C463        H467   1.084       .  S
C464        N468   1.438       .  S
N466        H469   1.046       .  S
N466        H470   1.046       .  S
N468        H471   1.046       .  S
N468        H472   1.046       .  S
C477        C478   1.413   1_455  A
C477        C482   1.403       .  A
C478        C479   1.406       .  A
C478        N483   1.438       .  S
C479        C480   1.404   1_655  A
C479        H484   1.084       .  S
C480        C485   1.484       .  S
C480        C481   1.410       .  A
C481        C482   1.403       .  A
C481        N486   1.438       .  S
C482        H487   1.084       .  S
N483        H503   1.045       .  S
N483        H504   1.046       .  S
C485        C488   1.403       .  A
C485        C492   1.409   1_455  A
N486        H501   1.046       .  S
N486        H502   1.046       .  S
C488        C489   1.405       .  A
C488        H493   1.084       .  S
C489        C490   1.415       .  A
C489        N494   1.438       .  S
C490        C491   1.407   1_455  A
C491        C492   1.404       .  A
C491        H495   1.083       .  S
C492        N496   1.438       .  S
N494        H497   1.046       .  S
N494        H498   1.046       .  S
N496        H499   1.046       .  S
N496        H500   1.046       .  S
C505        C506   1.413   1_655  A
C505        C510   1.405   1_554  A
C506        C507   1.403       .  A
C506        N511   1.438       .  S
C507        C508   1.401   1_455  A
C507        H512   1.084       .  S
C508        C513   1.480   1_554  S
C508        C509   1.409   1_554  A
C509        C510   1.406       .  A
C509        N514   1.438       .  S
C510        H515   1.084       .  S
N511        H531   1.046       .  S
N511        H532   1.046       .  S
C513        C516   1.400       .  A
C513        C520   1.407   1_556  A
N514        H529   1.046       .  S
N514        H530   1.046       .  S
C516        C517   1.406       .  A
C516        H521   1.084   1_655  S
C517        C518   1.418       .  A
C517        N522   1.438   1_655  S
C518        C519   1.408   1_556  A
C519        C520   1.402       .  A
C519        H523   1.083       .  S
C520        N524   1.438       .  S
N522        H525   1.045       .  S
N522        H526   1.046   1_455  S
N524        H527   1.046       .  S
N524        H528   1.046       .  S
C533        C534   1.410   1_565  A
C533        C538   1.402       .  A
C534        C535   1.405       .  A
C534        N539   1.438       .  S
C535        C536   1.401   1_545  A
C535        H540   1.084       .  S
C536        C541   1.472       .  S
C536        C537   1.408       .  A
C537        C538   1.403       .  A
C537        N542   1.438       .  S
C538        H543   1.084       .  S
N539        H559   1.046       .  S
N539        H560   1.046       .  S
C541        C544   1.399   1_565  A
C541        C548   1.407       .  A
N542        H557   1.046       .  S
N542        H558   1.045       .  S
C544        C545   1.403       .  A
C544        H549   1.084       .  S
C545        C546   1.412   1_545  A
C545        N550   1.438       .  S
C546        C547   1.405       .  A
C547        C548   1.405       .  A
C547        H551   1.084       .  S
C548        N552   1.438       .  S
N550        H553   1.046       .  S
N550        H554   1.046       .  S
N552        H555   1.046       .  S
N552        H556   1.045       .  S
C561        C562   1.419       .  A
C561        C566   1.408   1_565  A
C562        C563   1.404       .  A
C562        N567   1.438       .  S
C563        C564   1.398       .  A
C563        H568   1.084       .  S
C564        C569   1.476   1_565  S
C564        C565   1.406   1_565  A
C565        C566   1.404       .  A
C565        N570   1.438       .  S
C566        H571   1.083       .  S
N567        H587   1.046       .  S
N567        H588   1.046       .  S
C569        C572   1.398       .  A
C569        C576   1.406   1_545  A
N570        H585   1.045       .  S
N570        H586   1.046       .  S
C572        C573   1.404       .  A
C572        H577   1.084       .  S
C573        C574   1.419       .  A
C573        N578   1.438       .  S
C574        C575   1.408   1_545  A
C575        C576   1.404       .  A
C575        H579   1.083       .  S
C576        N580   1.438       .  S
N578        H581   1.046       .  S
N578        H582   1.046   1_545  S
N580        H583   1.045       .  S
N580        H584   1.046   1_565  S
C589        C590   1.411       .  A
C589        C594   1.402   1_564  A
C590        C591   1.403       .  A
C590        N595   1.438       .  S
C591        C592   1.402   1_554  A
C591        H596   1.084       .  S
C592        C597   1.478       .  S
C592        C593   1.410   1_565  A
C593        C594   1.403       .  A
C593        N598   1.438       .  S
C594        H599   1.084       .  S
N595        H615   1.045       .  S
N595        H616   1.046       .  S
C597        C600   1.399   1_565  A
C597        C604   1.409       .  A
N598        H613   1.046       .  S
N598        H614   1.046       .  S
C600        C601   1.402       .  A
C600        H605   1.084   1_556  S
C601        C602   1.417   1_545  A
C601        N606   1.438   1_556  S
C602        C603   1.406       .  A
C603        C604   1.404       .  A
C603        H607   1.083       .  S
C604        N608   1.438       .  S
N606        H609   1.045       .  S
N606        H610   1.046       .  S
N608        H611   1.046       .  S
N608        H612   1.046       .  S
C617        C618   1.416   1_565  A
C617        C622   1.406       .  A
C618        C619   1.403       .  A
C618        N623   1.438       .  S
C619        C620   1.400   1_545  A
C619        H624   1.084       .  S
C620        C625   1.480       .  S
C620        C621   1.409       .  A
C621        C622   1.405       .  A
C621        N626   1.438       .  S
C622        H627   1.083       .  S
N623        H643   1.046       .  S
N623        H644   1.046       .  S
C625        C628   1.402       .  A
C625        C632   1.409   1_565  A
N626        H641   1.046       .  S
N626        H642   1.046       .  S
C628        C629   1.405       .  A
C628        H633   1.084       .  S
C629        C630   1.414       .  A
C629        N634   1.438       .  S
C630        C631   1.402   1_565  A
C631        C632   1.403       .  A
C631        H635   1.084       .  S
C632        N636   1.438       .  S
N634        H637   1.046       .  S
N634        H638   1.045       .  S
N636        H639   1.046       .  S
N636        H640   1.046       .  S
C645        C646   1.415       .  A
C645        C650   1.407   1_545  A
C646        C647   1.406       .  A
C646        N651   1.438       .  S
C647        C648   1.403   1_545  A
C647        H652   1.084       .  S
C648        C653   1.482       .  S
C648        C649   1.408       .  A
C649        C650   1.402       .  A
C649        N654   1.438       .  S
C650        H655   1.083       .  S
N651        H671   1.045       .  S
N651        H672   1.046       .  S
C653        C656   1.404       .  A
C653        C660   1.409   1_565  A
N654        H669   1.046       .  S
N654        H670   1.046       .  S
C656        C657   1.405       .  A
C656        H661   1.084       .  S
C657        C658   1.412       .  A
C657        N662   1.438       .  S
C658        C659   1.404   1_565  A
C659        C660   1.402       .  A
C659        H663   1.084       .  S
C660        N664   1.438       .  S
N662        H665   1.046       .  S
N662        H666   1.045       .  S
N664        H667   1.046       .  S
N664        H668   1.046       .  S
C673        C674   1.419       .  A
C673        C678   1.407   1_545  A
C674        C675   1.403   1_556  A
C674        N679   1.438   1_556  S
C675        C676   1.397   1_554  A
C675        H680   1.084       .  S
C676        C681   1.472       .  S
C676        C677   1.405   1_545  A
C677        C678   1.402       .  A
C677        N682   1.438       .  S
C678        H683   1.083       .  S
N679        H699   1.045   1_554  S
N679        H700   1.046       .  S
C681        C684   1.398   1_545  A
C681        C688   1.405   1_556  A
N682        H697   1.046       .  S
N682        H698   1.046   1_556  S
C684        C685   1.403       .  A
C684        H689   1.084       .  S
C685        C686   1.419   1_565  A
C685        N690   1.438       .  S
C686        C687   1.407   1_556  A
C687        C688   1.403       .  A
C687        H691   1.083       .  S
C688        N692   1.438       .  S
N690        H693   1.045       .  S
N690        H694   1.046       .  S
N692        H695   1.046       .  S
N692        H696   1.045   1_545  S
